pglib_opf_case10480_goc/dapi/pglib_opf_case10480_goc_10regions_dapi.m
% -------------------------------------------------------------------------
% Partitioned MATPOWER Case File
% Copyright (c) 2025 Milad Hasanzadeh
% Generated on: 2026-06-14
% This file contains partitioned data for 10 regions


% -------------------- mpc_regionR1 --------------------

mpc_regionR1.version = '2';
mpc_regionR1.baseMVA = 100.0000;
mpc_regionR1.bus = [
%	bus_i       type        Pd          Qd          Gs          Bs          area        Vm          Va          baseKV      zone        Vmax        Vmin        
	 1	 2	 0	 0	 0	 0	 1	 1	 0	 345	 2	 1.1	 0.9;
	 2	 2	 0	 0	 0	 0	 1	 1	 0	 345	 2	 1.1	 0.9;
	 3	 1	 0	 0	 0	 0	 1	 1	 0	 345	 1	 1.1	 0.9;
	 4	 3	 0	 0	 0	 0	 1	 1	 0	 345	 2	 1.1	 0.9;
	 5	 2	 0	 0	 0	 0	 1	 1	 0	 345	 2	 1.1	 0.9;
	 6	 1	 0	 0	 0	 0	 1	 1	 0	 345	 1	 1.1	 0.9;
	 7	 2	 0	 0	 0	 0	 1	 1	 0	 138	 2138	 1.1	 0.9;
	 8	 2	 0	 0	 0	 0	 1	 1	 0	 230	 2	 1.1	 0.9;
	 9	 2	 0	 0	 0	 0	 1	 1	 0	 345	 2	 1.1	 0.9;
	 10	 1	 0	 0	 0	 0	 1	 1	 0	 345	 1	 1.1	 0.9;
	 11	 2	 0	 0	 0	 0	 1	 1	 0	 138	 2138	 1.1	 0.9;
	 12	 1	 0	 0	 0	 0	 1	 1	 0	 345	 1	 1.1	 0.9;
	 13	 2	 0	 0	 0	 0	 1	 1	 0	 345	 2	 1.1	 0.9;
	 14	 2	 0	 0	 0	 0	 1	 1	 0	 345	 2	 1.1	 0.9;
	 15	 2	 0	 0	 0	 0	 1	 1	 0	 230	 2	 1.1	 0.9;
	 16	 2	 0	 0	 0	 0	 1	 1	 0	 345	 2	 1.1	 0.9;
	 17	 1	 0	 0	 0	 0	 1	 1	 0	 345	 2	 1.1	 0.9;
	 18	 1	 0	 0	 0	 0	 1	 1	 0	 345	 1	 1.1	 0.9;
	 19	 1	 0	 0	 0	 0	 1	 1	 0	 230	 1	 1.1	 0.9;
	 20	 1	 0	 0	 0	 0	 1	 1	 0	 345	 1	 1.1	 0.9;
	 21	 2	 0	 0	 0	 0	 1	 1	 0	 138	 2138	 1.1	 0.9;
	 22	 2	 0	 0	 0	 0	 1	 1	 0	 345	 2	 1.1	 0.9;
	 23	 1	 0	 0	 0	 0	 1	 1	 0	 230	 1	 1.1	 0.9;
	 24	 2	 0	 0	 0	 0	 1	 1	 0	 345	 2	 1.1	 0.9;
	 25	 1	 0	 0	 0	 0	 1	 1	 0	 345	 1	 1.1	 0.9;
	 26	 2	 0	 0	 0	 0	 1	 1	 0	 138	 2138	 1.1	 0.9;
	 27	 1	 0	 0	 0	 0	 1	 1	 0	 345	 1	 1.1	 0.9;
	 28	 1	 0	 0	 0	 0	 1	 1	 0	 345	 1	 1.1	 0.9;
	 29	 2	 0	 0	 0	 0	 1	 1	 0	 138	 2138	 1.1	 0.9;
	 30	 2	 0	 0	 0	 0	 1	 1	 0	 230	 2	 1.1	 0.9;
	 31	 2	 0	 0	 0	 0	 1	 1	 0	 230	 2	 1.1	 0.9;
	 32	 2	 0	 0	 0	 0	 1	 1	 0	 138	 2138	 1.1	 0.9;
	 33	 1	 0	 0	 0	 0	 1	 1	 0	 345	 1	 1.1	 0.9;
	 34	 2	 0	 0	 0	 0	 1	 1	 0	 138	 2138	 1.1	 0.9;
	 35	 2	 0	 0	 0	 0	 1	 1	 0	 138	 2138	 1.1	 0.9;
	 36	 2	 0	 0	 0	 0	 1	 1	 0	 138	 2138	 1.1	 0.9;
	 37	 2	 0	 0	 0	 0	 1	 1	 0	 138	 2138	 1.1	 0.9;
	 38	 1	 0	 0	 0	 0	 1	 1	 0	 230	 1	 1.1	 0.9;
	 39	 2	 0	 0	 0	 0	 1	 1	 0	 138	 2138	 1.1	 0.9;
	 40	 2	 0	 0	 0	 0	 1	 1	 0	 69	 269	 1.1	 0.9;
	 41	 1	 0	 0	 0	 0	 1	 1	 0	 69	 269	 1.1	 0.9;
	 42	 1	 0	 0	 0	 0	 1	 1	 0	 230	 1	 1.1	 0.9;
	 43	 1	 0	 0	 0	 0	 1	 1	 0	 138	 138	 1.1	 0.9;
	 44	 1	 6.58	 1.23	 0	 0	 1	 1	 0	 138	 138	 1.1	 0.9;
	 45	 1	 99.32	 21.16	 0	 0	 1	 1	 0	 345	 1	 1.1	 0.9;
	 46	 1	 0	 0	 0	 0	 1	 1	 0	 345	 1	 1.1	 0.9;
	 47	 1	 10.24	 1.98	 0	 0	 1	 1	 0	 230	 1	 1.1	 0.9;
	 48	 1	 0	 0	 0	 0	 1	 1	 0	 138	 138	 1.1	 0.9;
	 49	 1	 0	 0	 0	 0	 1	 1	 0	 138	 138	 1.1	 0.9;
	 50	 1	 16.49	 3.05	 0	 0	 1	 1	 0	 69	 69	 1.1	 0.9;
	 51	 1	 0	 0	 0	 0	 1	 1	 0	 138	 138	 1.1	 0.9;
	 52	 1	 0	 0	 0	 0	 1	 1	 0	 138	 138	 1.1	 0.9;
	 53	 1	 0	 0	 0	 0	 1	 1	 0	 138	 138	 1.1	 0.9;
	 54	 1	 33.56	 6.18	 0	 0	 1	 1	 0	 138	 138	 1.1	 0.9;
	 55	 1	 10.33	 1.96	 0	 0	 1	 1	 0	 69	 69	 1.1	 0.9;
	 56	 1	 9.41	 1.78	 0	 0	 1	 1	 0	 69	 69	 1.1	 0.9;
	 57	 1	 0	 0	 0	 0	 1	 1	 0	 138	 138	 1.1	 0.9;
	 58	 1	 0	 0	 0	 0	 1	 1	 0	 138	 138	 1.1	 0.9;
	 59	 1	 10.15	 1.91	 0	 0	 1	 1	 0	 69	 69	 1.1	 0.9;
	 60	 1	 11.96	-16.92	 0	 0	 1	 1	 0	 138	 138	 1.1	 0.9;
	 61	 1	 9.38	 1.78	 0	 0	 1	 1	 0	 69	 69	 1.1	 0.9;
	 62	 1	 0	-15.26	 0	 0	 1	 1	 0	 138	 138	 1.1	 0.9;
	 63	 1	 0	 0	 0	 0	 1	 1	 0	 138	 138	 1.1	 0.9;
	 64	 1	 8.78	 1.64	 0	 0	 1	 1	 0	 138	 138	 1.1	 0.9;
	 65	 1	 0	 0	 0	 0	 1	 1	 0	 138	 138	 1.1	 0.9;
	 66	 1	 19.73	 3.96	 0	 0	 1	 1	 0	 138	 138	 1.1	 0.9;
	 67	 1	 0	 0	 0	 0	 1	 1	 0	 230	 1	 1.1	 0.9;
	 68	 1	 10.55	 1.97	 0	 0	 1	 1	 0	 138	 138	 1.1	 0.9;
	 69	 1	 53.23	 10.25	 0	 0	 1	 1	 0	 138	 138	 1.1	 0.9;
	 70	 1	 0	 0	 0	 0	 1	 1	 0	 345	 1	 1.1	 0.9;
	 71	 1	 0	 0	 0	 0	 1	 1	 0	 138	 138	 1.1	 0.9;
	 72	 1	 20.91	 3.96	 0	 0	 1	 1	 0	 138	 138	 1.1	 0.9;
	 73	 1	 8.88	 1.66	 0	 0	 1	 1	 0	 138	 138	 1.1	 0.9;
	 74	 1	 15.19	 2.84	 0	 0	 1	 1	 0	 138	 138	 1.1	 0.9;
	 75	 1	 6.71	 1.29	 0	 0	 1	 1	 0	 138	 138	 1.1	 0.9;
	 76	 1	 475.13	 114.16	 0	 0	 1	 1	 0	 345	 1	 1.1	 0.9;
	 77	 1	 151.13	 33.87	 0	 0	 1	 1	 0	 230	 1	 1.1	 0.9;
	 78	 1	 0	 0	 0	 0	 1	 1	 0	 138	 138	 1.1	 0.9;
	 79	 1	 152.01	 28.15	 0	 0	 1	 1	 0	 230	 1	 1.1	 0.9;
	 80	 1	 35.35	 6.6	 0	 0	 1	 1	 0	 138	 138	 1.1	 0.9;
	 81	 1	 0	 0	 0	 0	 1	 1	 0	 138	 138	 1.1	 0.9;
	 82	 1	 6.46	 1.22	 0	 0	 1	 1	 0	 230	 1	 1.1	 0.9;
	 83	 1	 20.5	 3.79	 0	 0	 1	 1	 0	 230	 1	 1.1	 0.9;
	 84	 1	 0	 0	 0	 0	 1	 1	 0	 138	 138	 1.1	 0.9;
	 85	 1	 5.56	 1.05	 0	 0	 1	 1	 0	 69	 69	 1.1	 0.9;
	 86	 1	 5.45	 1.01	 0	 0	 1	 1	 0	 69	 69	 1.1	 0.9;
	 87	 1	 8.41	 1.58	 0	 0	 1	 1	 0	 69	 69	 1.1	 0.9;
	 88	 1	 8	 1.53	 0	 0	 1	 1	 0	 138	 138	 1.1	 0.9;
	 89	 1	 21.18	 4.31	 0	 0	 1	 1	 0	 69	 69	 1.1	 0.9;
	 90	 1	 1314.38	 193.37	 0	 0	 1	 1	 0	 345	 1	 1.1	 0.9;
	 91	 1	 72.66	 13.95	 0	 0	 1	 1	 0	 138	 138	 1.1	 0.9;
	 92	 1	 145.42	 33.95	 0	 0	 1	 1	 0	 138	 138	 1.1	 0.9;
	 93	 1	 261.54	 45.05	 0	 0	 1	 1	 0	 230	 1	 1.1	 0.9;
	 94	 1	 10.24	 1.94	 0	 0	 1	 1	 0	 230	 1	 1.1	 0.9;
	 95	 1	 7.9	 1.51	 0	 0	 1	 1	 0	 138	 138	 1.1	 0.9;
	 96	 1	 0	 0	 0	 0	 1	 1	 0	 138	 138	 1.1	 0.9;
	 97	 1	 0	 0	 0	 0	 1	 1	 0	 138	 138	 1.1	 0.9;
	 98	 1	 5.96	 1.16	 0	 0	 1	 1	 0	 138	 138	 1.1	 0.9;
	 99	 1	 11.15	 2.11	 0	 0	 1	 1	 0	 138	 138	 1.1	 0.9;
	 100	 1	 5.29	 1.01	 0	 0	 1	 1	 0	 69	 69	 1.1	 0.9;
	 101	 1	 0	 0	 0	 0	 1	 1	 0	 138	 138	 1.1	 0.9;
	 102	 1	 10.64	 2.01	 0	 0	 1	 1	 0	 69	 69	 1.1	 0.9;
	 103	 1	 15.72	 2.94	 0	 0	 1	 1	 0	 138	 138	 1.1	 0.9;
	 104	 1	 8.38	 1.57	 0	 0	 1	 1	 0	 138	 138	 1.1	 0.9;
	 105	 1	 0	 0	 0	 0	 1	 1	 0	 138	 138	 1.1	 0.9;
	 106	 1	 4.2	 0.79	 0	 0	 1	 1	 0	 69	 69	 1.1	 0.9;
	 107	 1	 9.93	 1.9	 0	 0	 1	 1	 0	 69	 69	 1.1	 0.9;
	 108	 1	 0	 0	 0	 0	 1	 1	 0	 138	 138	 1.1	 0.9;
	 109	 1	 8.44	 1.58	 0	 0	 1	 1	 0	 138	 138	 1.1	 0.9;
	 110	 1	 6.18	 1.18	 0	 0	 1	 1	 0	 138	 138	 1.1	 0.9;
	 111	 1	 382.06	 73.35	 0	 0	 1	 1	 0	 138	 138	 1.1	 0.9;
	 112	 1	 349.95	 73.1	 0	 0	 1	 1	 0	 345	 1	 1.1	 0.9;
	 113	 1	 11.67	 2.2	 0	 0	 1	 1	 0	 69	 69	 1.1	 0.9;
	 114	 1	 14.99	 2.89	 0	 0	 1	 1	 0	 138	 138	 1.1	 0.9;
	 115	 1	 34.1	 6.45	 0	 0	 1	 1	 0	 138	 138	 1.1	 0.9;
	 116	 1	 0	 0	 0	 0	 1	 1	 0	 138	 138	 1.1	 0.9;
	 117	 1	 0	 0	 0	 0	 1	 1	 0	 138	 138	 1.1	 0.9;
	 118	 1	 0	 0	 0	 0	 1	 1	 0	 138	 138	 1.1	 0.9;
	 119	 1	 0	 0	 0	 0	 1	 1	 0	 138	 138	 1.1	 0.9;
	 120	 1	 3.86	 0.72	 0	 0	 1	 1	 0	 138	 138	 1.1	 0.9;
	 121	 1	 0	 0	 0	 0	 1	 1	 0	 138	 138	 1.1	 0.9;
	 122	 1	 27.45	 5.07	 0	 0	 1	 1	 0	 138	 138	 1.1	 0.9;
	 123	 1	 0	 0	 0	 0	 1	 1	 0	 138	 138	 1.1	 0.9;
	 124	 1	 8.09	 1.52	 0	 0	 1	 1	 0	 138	 138	 1.1	 0.9;
	 125	 1	 6.3	 1.18	 0	 0	 1	 1	 0	 69	 69	 1.1	 0.9;
	 126	 1	 8.56	 1.6	 0	 0	 1	 1	 0	 69	 69	 1.1	 0.9;
	 127	 1	 24.67	 4.7	 0	 0	 1	 1	 0	 138	 138	 1.1	 0.9;
	 128	 1	 11.52	 2.16	 0	 0	 1	 1	 0	 230	 1	 1.1	 0.9;
	 129	 1	 7.74	 1.44	 0	 0	 1	 1	 0	 230	 1	 1.1	 0.9;
	 130	 1	 20.68	 3.93	 0	 0	 1	 1	 0	 138	 138	 1.1	 0.9;
	 131	 1	 16.04	 3.01	 0	 0	 1	 1	 0	 138	 138	 1.1	 0.9;
	 132	 1	 16.65	 3.08	 0	 0	 1	 1	 0	 230	 1	 1.1	 0.9;
	 133	 1	 7.97	 1.49	 0	 0	 1	 1	 0	 138	 138	 1.1	 0.9;
	 134	 1	 19.31	 3.56	 0	 0	 1	 1	 0	 138	 138	 1.1	 0.9;
	 135	 1	 0	 0	 0	 0	 1	 1	 0	 138	 138	 1.1	 0.9;
	 136	 1	 12.66	 2.39	 0	 0	 1	 1	 0	 69	 69	 1.1	 0.9;
	 137	 1	 0	 0	 0	 0	 1	 1	 0	 138	 138	 1.1	 0.9;
	 138	 1	 11.58	 2.18	 0	 0	 1	 1	 0	 69	 69	 1.1	 0.9;
	 139	 1	 13.04	 2.47	 0	 0	 1	 1	 0	 230	 1	 1.1	 0.9;
	 140	 1	 53.95	 11.17	 0	 0	 1	 1	 0	 230	 1	 1.1	 0.9;
	 141	 1	 9.07	 1.7	 0	 0	 1	 1	 0	 69	 69	 1.1	 0.9;
	 142	 1	 11.57	 2.21	 0	 0	 1	 1	 0	 69	 69	 1.1	 0.9;
	 143	 1	 9.94	 1.91	 0	 0	 1	 1	 0	 69	 69	 1.1	 0.9;
	 144	 1	 8.16	 1.55	 0	 0	 1	 1	 0	 69	 69	 1.1	 0.9;
	 145	 1	 0	 0	 0	 0	 1	 1	 0	 138	 138	 1.1	 0.9;
	 146	 1	 14.98	 2.85	 0	 0	 1	 1	 0	 138	 138	 1.1	 0.9;
	 147	 1	 15.7	 3	 0	 0	 1	 1	 0	 138	 138	 1.1	 0.9;
	 148	 1	 0	 0	 0	 0	 1	 1	 0	 138	 138	 1.1	 0.9;
	 149	 1	 12.58	 2.33	 0	 0	 1	 1	 0	 69	 69	 1.1	 0.9;
	 150	 1	 11.29	 2.12	 0	 0	 1	 1	 0	 69	 69	 1.1	 0.9;
	 151	 1	 14.51	 2.78	 0	 0	 1	 1	 0	 69	 69	 1.1	 0.9;
	 152	 1	 0	 0	 0	 0	 1	 1	 0	 138	 138	 1.1	 0.9;
	 153	 1	 0	 0	 0	 0	 1	 1	 0	 138	 138	 1.1	 0.9;
	 154	 1	 0	 0	 0	 0	 1	 1	 0	 138	 138	 1.1	 0.9;
	 155	 1	 5.15	 0.95	 0	 0	 1	 1	 0	 69	 69	 1.1	 0.9;
	 156	 1	 0	 0	 0	 0	 1	 1	 0	 138	 138	 1.1	 0.9;
	 157	 1	 20.22	 3.85	 0	 0	 1	 1	 0	 138	 138	 1.1	 0.9;
	 158	 1	 0	 0	 0	 0	 1	 1	 0	 138	 138	 1.1	 0.9;
	 159	 1	 18.03	 3.42	 0	 0	 1	 1	 0	 138	 138	 1.1	 0.9;
	 160	 1	 20.84	 3.95	 0	 0	 1	 1	 0	 138	 138	 1.1	 0.9;
	 161	 1	 17.5	 3.34	 0	 0	 1	 1	 0	 138	 138	 1.1	 0.9;
	 162	 1	 18.52	 3.51	 0	 0	 1	 1	 0	 230	 1	 1.1	 0.9;
	 163	 1	 15.32	 2.89	 0	 0	 1	 1	 0	 138	 138	 1.1	 0.9;
	 164	 1	 11.46	 2.14	 0	 0	 1	 1	 0	 138	 138	 1.1	 0.9;
	 165	 1	 0	 0	 0	 0	 1	 1	 0	 138	 138	 1.1	 0.9;
	 166	 1	 26.28	 4.98	 0	 0	 1	 1	 0	 138	 138	 1.1	 0.9;
	 167	 1	 32.18	 6.29	 0	 0	 1	 1	 0	 138	 138	 1.1	 0.9;
	 168	 1	 0	 0	 0	 0	 1	 1	 0	 138	 138	 1.1	 0.9;
	 169	 1	 9.66	 1.81	 0	 0	 1	 1	 0	 69	 69	 1.1	 0.9;
	 170	 1	 12.26	 2.31	 0	 0	 1	 1	 0	 69	 69	 1.1	 0.9;
	 171	 1	 0	 0	 0	 0	 1	 1	 0	 138	 138	 1.1	 0.9;
	 172	 1	 0	 0	 0	 0	 1	 1	 0	 138	 138	 1.1	 0.9;
	 173	 1	 0	 0	 0	 0	 1	 1	 0	 138	 138	 1.1	 0.9;
	 174	 1	 9.48	 1.82	 0	 0	 1	 1	 0	 138	 138	 1.1	 0.9;
	 175	 1	 0	 0	 0	 0	 1	 1	 0	 138	 138	 1.1	 0.9;
	 176	 1	 10.14	 1.93	 0	 0	 1	 1	 0	 230	 1	 1.1	 0.9;
	 177	 1	 14.75	 2.83	 0	 0	 1	 1	 0	 230	 1	 1.1	 0.9;
	 178	 1	 0	 0	 0	 0	 1	 1	 0	 138	 138	 1.1	 0.9;
	 179	 1	 30.66	 6.16	 0	 0	 1	 1	 0	 345	 1	 1.1	 0.9;
	 180	 1	 17.49	 3.25	 0	 0	 1	 1	 0	 138	 138	 1.1	 0.9;
	 181	 1	 29.91	 5.77	 0	 0	 1	 1	 0	 138	 138	 1.1	 0.9;
	 182	 1	 7.53	 1.42	 0	 0	 1	 1	 0	 69	 69	 1.1	 0.9;
	 183	 1	 6.36	 1.21	 0	 0	 1	 1	 0	 69	 69	 1.1	 0.9;
	 184	 1	 2.85	 0.56	 0	 0	 1	 1	 0	 69	 69	 1.1	 0.9;
	 185	 1	 9.51	 1.78	 0	 0	 1	 1	 0	 69	 69	 1.1	 0.9;
	 186	 1	 7.96	 1.5	 0	 0	 1	 1	 0	 69	 69	 1.1	 0.9;
	 187	 1	 0	 0	 0	 0	 1	 1	 0	 138	 138	 1.1	 0.9;
	 188	 1	 12.66	 2.36	 0	 0	 1	 1	 0	 69	 69	 1.1	 0.9;
	 189	 1	 0	 0	 0	 0	 1	 1	 0	 230	 1	 1.1	 0.9;
	 190	 1	 0	 0	 0	 0	 1	 1	 0	 230	 1	 1.1	 0.9;
	 191	 1	 0	 0	 0	 0	 1	 1	 0	 345	 1	 1.1	 0.9;
	 192	 1	 9.68	 1.82	 0	 0	 1	 1	 0	 345	 1	 1.1	 0.9;
	 193	 1	 13.71	 2.63	 0	 0	 1	 1	 0	 230	 1	 1.1	 0.9;
	 194	 1	 0	 0	 0	 0	 1	 1	 0	 138	 138	 1.1	 0.9;
	 195	 1	 0	 0	 0	 0	 1	 1	 0	 138	 138	 1.1	 0.9;
	 196	 1	 0	 0	 0	 0	 1	 1	 0	 138	 138	 1.1	 0.9;
	 197	 1	 6.66	 1.26	 0	 0	 1	 1	 0	 138	 138	 1.1	 0.9;
	 198	 1	 7.53	 1.4	 0	 0	 1	 1	 0	 69	 69	 1.1	 0.9;
	 199	 1	 12.93	 2.46	 0	 0	 1	 1	 0	 69	 69	 1.1	 0.9;
	 200	 1	 0	 0	 0	 0	 1	 1	 0	 138	 138	 1.1	 0.9;
...
];

mpc_regionR1.gen = [
%	bus         Pg          Qg          Qmax        Qmin        Vg          mBase       status      Pmax        Pmin        Pc1         Pc2         Qc1min      Qc1max      Qc2min      Qc2max      ramp_agc    ramp_10     ramp_30     ramp_q      apf         
	 1	 1822.5	 0	 1598	-1598	 1	 100	 1	 3195	 450;
	 2	 770	 0	 683	-683	 1	 100	 1	 1366	 174;
	 4	 32.5	 26.9	 116.4	-62.6	 1	 100	 1	 50	 15;
	 4	 53.5	 26.9	 116.4	-62.6	 1	 100	 1	 92	 15;
	 4	 67	 43.8	 281.1	-193.5	 1	 100	 1	 104	 30;
	 4	 202.25	 55.4	 355.5	-244.7	 1	 100	 1	 317	 87.5;
	 4	 273.25	 55.4	 355.5	-244.7	 1	 100	 1	 459	 87.5;
	 4	 48.5	 42.85	 185.4	-99.7	 1	 100	 1	 67	 30;
	 4	 186.25	 71.7	 348.3	-204.9	 1	 100	 1	 285	 87.5;
	 4	 153.75	 76.3	 370.6	-218	 1	 100	 1	 220	 87.5;
	 5	 210.5	 23.3	 219.6	-173	 1	 100	 1	 346	 75;
	 7	 237	 0	 225	-225	 1	 100	 1	 449	 25;
	 7	 167.5	 0	 155	-155	 1	 100	 1	 310	 25;
	 8	 157	 19.8	 176.6	-137	 1	 100	 1	 274	 40;
	 8	 256	 0	 226	-226	 1	 100	 1	 452	 60;
	 8	 148.5	 0	 119	-119	 1	 100	 1	 237	 60;
	 9	 77.25	 20.75	 133.2	-91.7	 1	 100	 1	 142	 12.5;
	 9	 75.5	 27.55	 130.1	-75	 1	 100	 1	 149	 2;
	 9	 74.5	 29.55	 133.1	-74	 1	 100	 1	 147	 2;
	 9	 130	 2.05	 133.1	-129	 1	 100	 1	 258	 2;
	 11	 84.5	 13.95	 92.9	-65	 1	 100	 1	 129	 40;
	 11	 160	 0	 130	-130	 1	 100	 1	 260	 60;
	 11	 183.5	 0	 154	-154	 1	 100	 1	 307	 60;
	 11	 254.5	 0	 225	-225	 1	 100	 1	 449	 60;
	 11	 189	 0	 159	-159	 1	 100	 1	 318	 60;
	 13	 288	 0	 266	-266	 1	 100	 1	 531	 45;
	 13	 349	 0	 327	-327	 1	 100	 1	 653	 45;
	 13	 226.5	 0	 204	-204	 1	 100	 1	 408	 45;
	 13	 243.5	 0	 229	-229	 1	 100	 1	 457	 30;
	 14	 485.5	 0	 460	-460	 1	 100	 1	 920	 51;
	 14	 241.5	 0	 216	-216	 1	 100	 1	 432	 51;
	 14	 281	 0	 256	-256	 1	 100	 1	 511	 51;
	 14	 212.5	 0	 187	-187	 1	 100	 1	 374	 51;
	 14	 219.5	 0	 210	-210	 1	 100	 1	 419	 20;
	 15	 389	 0	 362	-362	 1	 100	 1	 723	 55;
	 15	 302.5	 0	 302	-302	 1	 100	 1	 603	 2;
	 16	 168	 0	 136	-136	 1	 100	 1	 271	 65;
	 16	 209	 0	 177	-177	 1	 100	 1	 353	 65;
	 16	 114	 6.8	 110.6	-97	 1	 100	 1	 193	 35;
	 21	 214	 0	 199	-199	 1	 100	 1	 398	 30;
	 22	 148.25	 0	 140	-140	 1	 100	 1	 280	 16.5;
	 22	 189.5	 0	 185	-185	 1	 100	 1	 370	 9;
	 22	 174.5	 0	 157	-157	 1	 100	 1	 314	 35;
	 22	 179.6625	 0	 169	-169	 1	 100	 1	 337	 22.325;
	 22	 154.6625	 0	 144	-144	 1	 100	 1	 287	 22.325;
	 24	 100.75	 0	 99	-99	 1	 100	 1	 197	 4.5;
	 24	 249	 0	 237	-237	 1	 100	 1	 473	 25;
	 24	 155.25	 0	 144	-144	 1	 100	 1	 288	 22.5;
	 24	 159.75	 0	 149	-149	 1	 100	 1	 297	 22.5;
	 24	 88.5	 0	 76	-76	 1	 100	 1	 152	 25;
	 24	 193.5	 0	 181	-181	 1	 100	 1	 362	 25;
	 24	 154	 0	 147	-147	 1	 100	 1	 293	 15;
	 26	 127	 0	 117	-117	 1	 100	 1	 233	 21;
	 26	 217	 0	 207	-207	 1	 100	 1	 413	 21;
	 29	 205	 1.841	 198.682	-195	 1	 100	 1	 390	 20;
	 30	 111.5	 0	 103	-103	 1	 100	 1	 206	 17;
	 30	 159	 0	 147	-147	 1	 100	 1	 293	 25;
	 30	 129	 0	 117	-117	 1	 100	 1	 233	 25;
	 31	 82.25	 0	 71	-71	 1	 100	 1	 142	 22.5;
	 31	 89.75	 0	 79	-79	 1	 100	 1	 157	 22.5;
	 31	 109.25	 0	 98	-98	 1	 100	 1	 196	 22.5;
	 31	 124.25	 0	 113	-113	 1	 100	 1	 226	 22.5;
	 32	 234	 0	 224	-224	 1	 100	 1	 448	 20;
	 32	 96	 0	 89	-89	 1	 100	 1	 177	 15;
	 32	 116.5	 0	 109	-109	 1	 100	 1	 218	 15;
	 32	 165	 0	 158	-158	 1	 100	 1	 315	 15;
	 32	 159	 0	 152	-152	 1	 100	 1	 303	 15;
	 32	 137.5	 0	 130	-130	 1	 100	 1	 260	 15;
	 32	 175	 0	 168	-168	 1	 100	 1	 335	 15;
	 34	 62	 0	 55	-55	 1	 100	 1	 110	 14;
	 34	 52	 0	 50	-50	 1	 100	 1	 99	 5;
	 35	 83.25	 0	 70	-70	 1	 100	 1	 140	 26.5;
	 35	 42	 4.6	 41.2	-32	 1	 100	 1	 63	 21;
	 35	 110.5	 0	 100	-100	 1	 100	 1	 200	 21;
	 35	 88.5	 0	 79	-79	 1	 100	 1	 157	 20;
	 35	 48.5	 1.1	 41.2	-39	 1	 100	 1	 78	 19;
	 35	 106	 0	 97	-97	 1	 100	 1	 193	 19;
	 35	 34.75	 16.2	 70.1	-37.7	 1	 100	 1	 56	 13.5;
	 35	 36.25	 16.2	 70.1	-37.7	 1	 100	 1	 59	 13.5;
	 35	 62.25	 0	 49	-49	 1	 100	 1	 98	 26.5;
	 35	 74.75	 0	 62	-62	 1	 100	 1	 123	 26.5;
	 35	 97.75	 0	 85	-85	 1	 100	 1	 169	 26.5;
	 35	 72.75	 0	 60	-60	 1	 100	 1	 119	 26.5;
	 35	 46.75	 0	 34	-34	 1	 100	 1	 67	 26.5;
	 35	 67.75	 0	 55	-55	 1	 100	 1	 109	 26.5;
	 35	 135.25	 0	 122	-122	 1	 100	 1	 244	 26.5;
	 35	 54.5	 0	 43	-43	 1	 100	 1	 85	 24;
	 36	 88.5	 0	 79	-79	 1	 100	 1	 157	 20;
	 36	 113.5	 0	 104	-104	 1	 100	 1	 207	 20;
	 36	 106	 0	 104	-104	 1	 100	 1	 207	 5;
	 36	 106.5	 0	 104	-104	 1	 100	 1	 208	 5;
	 37	 207	 40.2785	 282.557	-202	 1	 100	 1	 403	 11;
	 39	 75.25	 0	 69	-69	 1	 100	 1	 138	 12.5;
	 39	 83.75	 0	 78	-78	 1	 100	 1	 155	 12.5;
	 39	 52.75	 0	 47	-47	 1	 100	 1	 93	 12.5;
	 39	 66	 3.65	 61.3	-54	 1	 100	 1	 107	 25;
	 39	 88.5	 16.25	 101.5	-69	 1	 100	 1	 137	 40;
	 40	 69	 0	 67	-67	 1	 100	 1	 134	 4;
	 1095	 190.75	 57.75	 370.5	-255	 1	 100	 1	 349	 32.5;
	 1095	 447.25	 0	 431	-431	 1	 100	 1	 862	 32.5;
	 1101	 34.5	 0	 34	-34	 1	 100	 1	 67	 2;
	 1101	 188.85	 0	 158	-158	 1	 100	 1	 315	 62.7;
	 1101	 219.85	 0	 189	-189	 1	 100	 1	 377	 62.7;
	 1101	 191.25	 0	 171	-171	 1	 100	 1	 342	 40.5;
	 1101	 90.75	 0	 71	-71	 1	 100	 1	 141	 40.5;
	 1101	 137.25	 0	 117	-117	 1	 100	 1	 234	 40.5;
	 1105	 265	 0	 228	-228	 1	 100	 1	 455	 75;
	 1105	 175	 0	 153	-153	 1	 100	 1	 305	 45;
	 1105	 189	 0	 167	-167	 1	 100	 1	 333	 45;
	 1108	 42	 26.9	 116.4	-62.6	 1	 100	 1	 69	 15;
	 1108	 131.5	 0	 124	-124	 1	 100	 1	 248	 15;
	 1108	 46	 32.25	 139.6	-75.1	 1	 100	 1	 77	 15;
	 1115	 471.5	 0	 444	-444	 1	 100	 1	 888	 55;
	 1115	 179.5	 0	 152	-152	 1	 100	 1	 304	 55;
	 1115	 63.75	 35.8	 154.9	-83.3	 1	 100	 1	 115	 12.5;
	 1116	 247	 0	 225	-225	 1	 100	 1	 449	 45;
	 1116	 235.5	 0	 213	-213	 1	 100	 1	 426	 45;
	 1116	 210.5	 0	 188	-188	 1	 100	 1	 376	 45;
	 1116	 294	 0	 272	-272	 1	 100	 1	 543	 45;
	 1117	 30.75	 0	 46.3	-46.3	 1	 100	 1	 59	 2.5;
	 1117	 127.75	 0	 112	-112	 1	 100	 1	 223	 32.5;
	 1117	 110.75	 0	 95	-95	 1	 100	 1	 189	 32.5;
	 1117	 102.75	 0	 87	-87	 1	 100	 1	 173	 32.5;
	 1122	 389.5	 0	 377	-377	 1	 100	 1	 754	 25;
	 1122	 313.5	 23.194	 347.388	-301	 1	 100	 1	 602	 25;
	 1124	 82.75	 0	 69	-69	 1	 100	 1	 138	 27.5;
	 1124	 108.5	 0	 96	-96	 1	 100	 1	 191	 26;
	 1124	 130	 0	 117	-117	 1	 100	 1	 234	 26;
	 1124	 19.25	 12.55	 54.2	-29.1	 1	 100	 1	 26	 12.5;
	 1125	 186.95	 0	 176	-176	 1	 100	 1	 352	 21.9;
	 1125	 108.425	 0	 98	-98	 1	 100	 1	 195	 21.85;
	 1125	 136.25	 0	 126	-126	 1	 100	 1	 251	 21.5;
	 1125	 139.25	 0	 129	-129	 1	 100	 1	 257	 21.5;
	 1125	 195.425	 0	 185	-185	 1	 100	 1	 369	 21.85;
	 1130	 55	 0	 46	-46	 1	 100	 1	 91	 19;
	 1130	 82	 0	 73	-73	 1	 100	 1	 145	 19;
	 1130	 40.5	 2.8	 36.6	-31	 1	 100	 1	 62	 19;
	 1130	 78	 0	 69	-69	 1	 100	 1	 137	 19;
	 1136	 47	 0	 43	-43	 1	 100	 1	 85	 9;
	 1136	 66	 0	 62	-62	 1	 100	 1	 123	 9;
	 1136	 41	 0	 37	-37	 1	 100	 1	 74	 8;
	 1136	 39	 0	 35	-35	 1	 100	 1	 70	 8;
];

mpc_regionR1.branch = [
%	fbus        tbus        r           x           b           rateA       rateB       rateC       ratio       angle       status      angmin      angmax      
	 1	 10	 0.000707059	 0.0176967	 1.31763	 1275	 1500	 1500	 0	 0	 1	-30	 30;
	 1	 993	 0.000498074	 0.00833136	 0.347184	 1195.1	 1406	 1406	 0	 0	 1	-30	 30;
	 2	 5	 0.00268729	 0.0208366	 0.825186	 707.2	 832	 832	 0	 0	 1	-30	 30;
	 2	 883	 0.00312309	 0.0410637	 1.69291	 1000.45	 1177	 1177	 0	 0	 1	-30	 30;
	 3	 402	 2.1e-05	 0.000254	 0.009915	 1275	 1500	 1500	 0	 0	 1	-30	 30;
	 3	 1095	 1e-07	 0.0001	 0	 1275	 1500	 1500	 0	 0	 1	-30	 30;
	 4	 10	 1.88019e-05	 0.000272069	 0.0184368	 1275	 1500	 1500	 0	 0	 1	-30	 30;
	 4	 641	 0.0027	 0.0061	 0.339257	 1275	 1500	 1500	 0	 0	 1	-30	 30;
	 4	 641	 0.0027	 0.0061	 0.339257	 1275	 1500	 1500	 0	 0	 1	-30	 30;
	 4	 1105	 1.9e-05	 0.000272	 0.018437	 1275	 1500	 1500	 0	 0	 1	-30	 30;
	 5	 846	 0.00114183	 0.0207112	 1.45273	 1275	 1500	 1500	 0	 0	 1	-30	 30;
	 6	 547	 0.000474114	 0.00248122	 0.0190207	 373.15	 439	 439	 0	 0	 1	-30	 30;
	 6	 1381	 0.001412	 0.005465	 0.04001	 471.75	 555	 555	 0	 0	 1	-30	 30;
	 6	 1388	 5.4271e-05	 0.000638863	 0.0111584	 1011.5	 1190	 1190	 0	 0	 1	-30	 30;
	 7	 1045	 0.0117356	 0.0451535	 0.0123343	 208.93	 245.79	 245.79	 0	 0	 1	-30	 30;
	 7	 1047	 0.0112745	 0.038678	 0.00926664	 120.7	 142	 142	 0	 0	 1	-30	 30;
	 7	 1048	 0.0031439	 0.0110005	 0.00364547	 135.15	 159	 159	 0	 0	 1	-30	 30;
	 7	 1049	 0.00221643	 0.0125991	 0.003647	 237.66	 279.55	 279.55	 0	 0	 1	-30	 30;
	 7	 1050	 0.0094523	 0.038466	 0.00937242	 135.15	 159	 159	 0	 0	 1	-30	 30;
	 8	 453	 0.000714323	 0.00338071	 0.00627239	 281.77	 331.5	 331.5	 0	 0	 1	-30	 30;
	 8	 470	 0.000915223	 0.003366	 0.00539707	 201.45	 237	 237	 0	 0	 1	-30	 30;
	 8	 578	 0.00727814	 0.0219538	 0.0376247	 235.37	 276.9	 276.9	 0	 0	 1	-30	 30;
	 9	 112	 0.000472049	 0.00316499	 0.0255991	 980	 980	 980	 0	 0	 1	-30	 30;
	 9	 404	 0.000464384	 0.00373486	 0.0308183	 1185	 1185	 1185	 0	 0	 1	-30	 30;
	 10	 530	 0.000237433	 0.00598072	 0.434363	 1275	 1500	 1500	 0	 0	 1	-30	 30;
	 10	 1105	 1e-07	 0.0001	 0	 1232.5	 1450	 1450	 0	 0	 1	-30	 30;
	 11	 383	 0.002193	 0.016298	 0.006215	 247.35	 291	 291	 0	 0	 1	-30	 30;
	 11	 383	 0.002193	 0.016298	 0.006215	 247.35	 291	 291	 0	 0	 1	-30	 30;
	 11	 384	 0.000698632	 0.00829645	 0.00288967	 294.95	 347	 347	 0	 0	 1	-30	 30;
	 11	 384	 0.000699	 0.008296	 0.00289	 294.95	 347	 347	 0	 0	 1	-30	 30;
	 11	 389	 0.000405285	 0.00514645	 0.00212372	 326.4	 384	 384	 0	 0	 1	-30	 30;
	 11	 389	 0.000405	 0.005146	 0.002124	 326.4	 384	 384	 0	 0	 1	-30	 30;
	 11	 1125	 0.000729177	 0.00524887	 0.00438327	 371.45	 437	 437	 0	 0	 1	-30	 30;
	 11	 1125	 0.000729	 0.005249	 0.004383	 371.45	 437	 437	 0	 0	 1	-30	 30;
	 12	 1387	 0.000107306	 0.00111788	 0.010751	 601.8	 708	 708	 0	 0	 1	-30	 30;
	 13	 45	 0.0155609	 0.0585569	 0.461182	 301.75	 355	 355	 0	 0	 1	-30	 30;
	 13	 240	 0.00180645	 0.0069908	 0.0511855	 301.75	 355	 355	 0	 0	 1	-30	 30;
	 14	 490	 0.000179	 0.00214	 0.036388	 1100.75	 1295	 1295	 0	 0	 1	-30	 30;
	 14	 556	 0.000116444	 0.001138	 0.0096943	 721.57	 848.9	 848.9	 0	 0	 1	-30	 30;
	 14	 1387	 0.00054866	 0.00351277	 0.0311906	 436.05	 513	 513	 0	 0	 1	-30	 30;
	 15	 1120	 9.81762e-05	 0.00114757	 0.00401611	 735.08	 864.79	 864.79	 0	 0	 1	-30	 30;
	 15	 1164	 0.000290856	 0.00453076	 0.0190326	 920.21	 1082.61	 1082.61	 0	 0	 1	-30	 30;
	 16	 112	 0.00121665	 0.00447469	 0.0363235	 377.4	 444	 444	 0	 0	 1	-30	 30;
	 16	 986	 0.00541882	 0.0200357	 0.161193	 348.5	 410.03	 410.03	 0	 0	 1	-30	 30;
	 16	 1310	 3.72487e-05	 0.000626419	 0.00647903	 1275	 1500	 1500	 0	 0	 1	-30	 30;
	 17	 474	 0.000111665	 0.00160929	 0.0147639	 737.8	 868	 868	 0	 0	 1	-30	 30;
	 17	 490	 2.4e-05	 0.000331	 0.005042	 1155.15	 1359	 1359	 0	 0	 1	-30	 30;
	 18	 235	 5.56334e-05	 0.000588594	 0.0388299	 1275	 1500	 1500	 0	 0	 1	-30	 30;
	 18	 566	 0.00129914	 0.00935556	 0.33756	 675.75	 795	 795	 0	 0	 1	-30	 30;
	 18	 1115	 1e-07	 0.0001	 0	 850	 1000	 1000	 0	 0	 1	-30	 30;
	 19	 77	 0.00291884	 0.0102462	 0.0180689	 201.45	 237	 237	 0	 0	 1	-30	 30;
	 19	 79	 0.00515932	 0.027927	 0.0523027	 270.3	 318	 318	 0	 0	 1	-30	 30;
	 19	 176	 0.00653478	 0.0644454	 0.137637	 402.05	 473	 473	 0	 0	 1	-30	 30;
	 20	 192	 0.00273529	 0.0102004	 0.0805337	 301.75	 355	 355	 0	 0	 1	-30	 30;
	 20	 207	 0.000392886	 0.00149465	 0.0113269	 301.75	 355	 355	 0	 0	 1	-30	 30;
	 20	 219	 0.00084225	 0.00327978	 0.0237069	 301.75	 355	 355	 0	 0	 1	-30	 30;
	 21	 180	 0.00741223	 0.0263257	 0.0167125	 217.6	 256	 256	 0	 0	 1	-30	 30;
	 21	 1156	 0.0191574	 0.0667767	 0.0154873	 120.7	 142	 142	 0	 0	 1	-30	 30;
	 22	 974	 0.00054771	 0.00658568	 0.260638	 946.05	 1113	 1113	 0	 0	 1	-30	 30;
	 23	 1164	 0.000434268	 0.00509499	 0.0113697	 459.85	 541	 541	 0	 0	 1	-30	 30;
	 24	 90	 0.000217991	 0.00256618	 0.044822	 1122.26	 1320.26	 1320.26	 0	 0	 1	-30	 30;
	 24	 995	 0.0028555	 0.0176668	 0.288545	 676.6	 796	 796	 0	 0	 1	-30	 30;
	 25	 402	 0.000299	 0.003447	 0.133329	 1267	 1267	 1540	 0	 0	 1	-30	 30;
	 25	 565	 8.71683e-05	 0.00105771	 0.0452298	 1177.76	 1385.55	 1385.55	 0	 0	 1	-30	 30;
	 25	 566	 0.000274	 0.001961	 0.071698	 895	 895	 985	 0	 0	 1	-30	 30;
	 25	 1122	 1e-07	 0.0001	 0	 980	 980	 980	 0	 0	 1	-30	 30;
	 26	 975	 0.0149792	 0.0482398	 0.0131496	 120.7	 142	 142	 0	 0	 1	-30	 30;
	 26	 976	 0.0057977	 0.0300544	 0.00733808	 157.25	 185	 185	 0	 0	 1	-30	 30;
	 26	 979	 0.0128573	 0.0419381	 0.0111348	 120.7	 142	 142	 0	 0	 1	-30	 30;
	 26	 1056	 0.0347954	 0.0852021	 0.0233186	 100.3	 118	 118	 0	 0	 1	-30	 30;
	 27	 1387	 0.000118774	 0.00131011	 0.0112194	 601.8	 708	 708	 0	 0	 1	-30	 30;
	 28	 388	 0.000231306	 0.00379312	 0.0372369	 824.5	 970	 970	 0	 0	 1	-30	 30;
	 29	 88	 0.00115288	 0.0033851	 0.00254974	 241.83	 284.53	 284.53	 0	 0	 1	-30	 30;
	 29	 92	 0.00812823	 0.0312723	 0.00854187	 135.15	 159	 159	 0	 0	 1	-30	 30;
	 29	 1165	 0.00149943	 0.0147653	 0.00407793	 253.47	 298.19	 298.19	 0	 0	 1	-30	 30;
	 30	 221	 0.00563286	 0.0166083	 0.0298144	 181.05	 213	 213	 0	 0	 1	-30	 30;
	 30	 1219	 0.000167799	 0.00165235	 0.00352119	 402.05	 473	 473	 0	 0	 1	-30	 30;
	 30	 1233	 0.000182055	 0.00269849	 0.00626188	 707.2	 832	 832	 0	 0	 1	-30	 30;
	 31	 550	 0.000874243	 0.00596255	 0.0107359	 311.1	 366	 366	 0	 0	 1	-30	 30;
	 31	 1389	 0.000615333	 0.00289134	 0.00544333	 248.2	 292	 292	 0	 0	 1	-30	 30;
	 32	 260	 0.00464919	 0.0165115	 0.0104815	 217.6	 256	 256	 0	 0	 1	-30	 30;
	 32	 260	 0.004649	 0.016512	 0.010481	 217.6	 256	 256	 0	 0	 1	-30	 30;
	 32	 306	 0.001784	 0.010402	 0.003341	 286.19	 336.7	 336.7	 0	 0	 1	-30	 30;
	 32	 306	 0.001784	 0.010402	 0.003341	 286.19	 336.7	 336.7	 0	 0	 1	-30	 30;
	 32	 320	 0.00254331	 0.00674089	 0.00273552	 156.91	 184.6	 184.6	 0	 0	 1	-30	 30;
	 32	 321	 0.00451099	 0.0119218	 0.00279047	 100.3	 118	 118	 0	 0	 1	-30	 30;
	 32	 323	 0.00280087	 0.00980023	 0.0032477	 135.15	 159	 159	 0	 0	 1	-30	 30;
	 32	 326	 0.00411226	 0.0123773	 0.00387222	 120.7	 142	 142	 0	 0	 1	-30	 30;
	 32	 1246	 0.0101825	 0.0349313	 0.00836886	 120.7	 142	 142	 0	 0	 1	-30	 30;
	 32	 1246	 0.010183	 0.034931	 0.008369	 120.7	 142	 142	 0	 0	 1	-30	 30;
	 33	 1381	 0.00037385	 0.00194381	 0.0150987	 373.15	 439	 439	 0	 0	 1	-30	 30;
	 33	 1387	 8.08959e-05	 0.000776187	 0.00686301	 555.05	 653	 653	 0	 0	 1	-30	 30;
	 34	 210	 0.00224682	 0.00749518	 0.00190084	 120.7	 142	 142	 0	 0	 1	-30	 30;
	 34	 218	 0.0137411	 0.0453499	 0.011756	 120.7	 142	 142	 0	 0	 1	-30	 30;
	 35	 840	 0.000699084	 0.00891962	 0.00583496	 481.95	 567	 567	 0	 0	 1	-30	 30;
	 35	 841	 0.00165912	 0.00580891	 0.00257305	 148.75	 175	 175	 0	 0	 1	-30	 30;
	 35	 842	 0.000847839	 0.008875	 0.00323731	 276.25	 325	 325	 0	 0	 1	-30	 30;
	 35	 894	 0.00175571	 0.00842748	 0.00402931	 186.15	 219	 219	 0	 0	 1	-30	 30;
	 35	 896	 0.00145861	 0.0097678	 0.00614116	 323.85	 381	 381	 0	 0	 1	-30	 30;
	 35	 900	 0.000744963	 0.00487086	 0.00180376	 317.2	 317.2	 348	 0	 0	 1	-30	 30;
	 35	 915	 0.00379803	 0.0140431	 0.00416018	 216.24	 254.4	 254.4	 0	 0	 1	-30	 30;
	 36	 1306	 0.00138053	 0.00813865	 0.00662663	 323.85	 381	 381	 0	 0	 1	-30	 30;
	 36	 1379	 0.000881605	 0.00841265	 0.00340944	 369.6	 369.6	 407	 0	 0	 1	-30	 30;
	 37	 447	 0.000813423	 0.00244827	 0.000765927	 120.7	 142	 142	 0	 0	 1	-30	 30;
	 37	 598	 0.00162718	 0.0042171	 0.00127576	 198.05	 233	 233	 0	 0	 1	-30	 30;
	 37	 1326	 0.00145762	 0.00429735	 0.000999672	 198.05	 233	 233	 0	 0	 1	-30	 30;
	 38	 67	 0.00034555	 0.00349922	 0.00704281	 402.05	 473	 473	 0	 0	 1	-30	 30;
	 38	 190	 0.00471733	 0.0283265	 0.0566421	 290.7	 342	 342	 0	 0	 1	-30	 30;
	 38	 193	 0.0102081	 0.0375583	 0.0602534	 201.45	 237	 237	 0	 0	 1	-30	 30;
	 39	 398	 0.00161383	 0.00645822	 0.00218154	 204	 240	 240	 0	 0	 1	-30	 30;
	 39	 1136	 0.0011995	 0.00419701	 0.00139084	 135.15	 159	 159	 0	 0	 1	-30	 30;
	 39	 1309	 0.000143842	 0.00179817	 0.000786241	 329.8	 388	 388	 0	 0	 1	-30	 30;
	 40	 455	 0.01435	 0.033315	 0.000495	 48.45	 57	 57	 0	 0	 1	-30	 30;
	 40	 1331	 0.00576511	 0.0121167	 0.000220748	 71.23	 83.83	 83.83	 0	 0	 1	-30	 30;
	 41	 393	 0.0592122	 0.136042	 0.00206644	 48.45	 57	 57	 0	 0	 1	-30	 30;
	 41	 1308	 0.018149	 0.0622581	 0.000932187	 60.35	 71	 71	 0	 0	 1	-30	 30;
	 41	 1568	 0.218003	 0.405684	 0.0095027	 48.45	 57	 57	 0	 0	 1	-30	 30;
	 42	 397	 0.000342	 0.002109	 0.003989	 375.7	 442	 442	 0	 0	 1	-30	 30;
	 42	 1311	 0.0016695	 0.00735587	 0.0157745	 248.2	 292	 292	 0	 0	 1	-30	 30;
	 43	 114	 0.0270801	 0.10018	 0.0296984	 135.15	 159	 159	 0	 0	 1	-30	 30;
	 43	 970	 0.00655243	 0.0229275	 0.00759821	 135.15	 159	 159	 0	 0	 1	-30	 30;
	 43	 1558	 0.0150268	 0.0403443	 0.00914404	 100.3	 118	 118	 0	 0	 1	-30	 30;
	 44	 181	 0.020933	 0.0718235	 0.0172113	 120.7	 142	 142	 0	 0	 1	-30	 30;
	 44	 1139	 0.0214998	 0.0749454	 0.0173829	 120.7	 142	 142	 0	 0	 1	-30	 30;
	 45	 46	 0.000840883	 0.00611003	 0.0972933	 745.45	 877	 877	 0	 0	 1	-30	 30;
	 45	 884	 0.00259045	 0.0223904	 0.329719	 810.9	 954	 954	 0	 0	 1	-30	 30;
	 45	 1081	 0.00695282	 0.0303657	 0.251484	 338.3	 398	 398	 0	 0	 1	-30	 30;
	 48	 1608	 0.0188799	 0.0779697	 0.0184534	 135.15	 159	 159	 0	 0	 1	-30	 30;
	 49	 57	 0.0069096	 0.0185501	 0.0042041	 100.3	 118	 118	 0	 0	 1	-30	 30;
	 49	 187	 0.0132124	 0.0349199	 0.00817399	 100.3	 118	 118	 0	 0	 1	-30	 30;
	 50	 56	 0.0271902	 0.0624678	 0.000948822	 48.45	 57	 57	 0	 0	 1	-30	 30;
	 50	 1144	 0.0574891	 0.0634264	 0.000699588	 44	 44	 49	 0	 0	 1	-30	 30;
	 51	 525	 0.0037577	 0.0140964	 0.00405394	 135.15	 159	 159	 0	 0	 1	-30	 30;
	 52	 497	 0.0032127	 0.0145841	 0.00506163	 162.35	 191	 191	 0	 0	 1	-30	 30;
	 52	 527	 0.0122155	 0.0322846	 0.00755707	 100.3	 118	 118	 0	 0	 1	-30	 30;
	 53	 54	 0.00489458	 0.0167197	 0.00581701	 135.15	 159	 159	 0	 0	 1	-30	 30;
	 53	 121	 0.0024619	 0.0194033	 0.00656238	 221.85	 261	 261	 0	 0	 1	-30	 30;
	 54	 57	 0.0116721	 0.0313366	 0.00710222	 100.3	 118	 118	 0	 0	 1	-30	 30;
	 54	 497	 0.00720756	 0.0196906	 0.00535108	 108.8	 128	 128	 0	 0	 1	-30	 30;
	 55	 56	 0.0243446	 0.0235218	 0.000341557	 44	 44	 49	 0	 0	 1	-30	 30;
	 57	 58	 0.00630435	 0.0129014	 0.00507965	 100.3	 118	 118	 0	 0	 1	-30	 30;
	 58	 63	 0.00503361	 0.0130456	 0.00394659	 108.8	 128	 128	 0	 0	 1	-30	 30;
	 59	 1151	 0.0903077	 0.0903321	 0.00122041	 44	 44	 49	 0	 0	 1	-30	 30;
	 60	 62	 0.00242066	 0.00807509	 0.00204791	 120.7	 142	 142	 0	 0	 1	-30	 30;
	 60	 65	 0.00390056	 0.0119785	 0.0035964	 120.7	 142	 142	 0	 0	 1	-30	 30;
	 61	 1149	 0.0135465	 0.0323125	 0.000454729	 48.45	 57	 57	 0	 0	 1	-30	 30;
	 61	 1150	 0.0232367	 0.0945578	 0.00143989	 68	 80	 80	 0	 0	 1	-30	 30;
	 63	 64	 0.00314241	 0.0190045	 0.00484969	 174.25	 205	 205	 0	 0	 1	-30	 30;
	 64	 66	 0.0102618	 0.0266412	 0.00646635	 100.3	 118	 118	 0	 0	 1	-30	 30;
	 64	 68	 0.00320273	 0.0196792	 0.00719543	 195.5	 230	 230	 0	 0	 1	-30	 30;
	 65	 66	 0.00314511	 0.0183424	 0.00589166	 186.15	 219	 219	 0	 0	 1	-30	 30;
	 65	 215	 0.0102814	 0.0264302	 0.00654486	 100.3	 118	 118	 0	 0	 1	-30	 30;
	 67	 1164	 0.00342252	 0.0354842	 0.0681675	 402.05	 473	 473	 0	 0	 1	-30	 30;
	 68	 69	 0.0054207	 0.0354454	 0.0131275	 202.3	 238	 238	 0	 0	 1	-30	 30;
	 69	 72	 0.00911868	 0.0435845	 0.0152654	 164.05	 193	 193	 0	 0	 1	-30	 30;
	 70	 76	 0.000380647	 0.00619429	 0.0966893	 1206.15	 1419	 1419	 0	 0	 1	-30	 30;
	 70	 179	 0.000522957	 0.00763788	 0.115193	 1110.1	 1306	 1306	 0	 0	 1	-30	 30;
	 71	 73	 0.00543134	 0.0177664	 0.013319	 217.6	 256	 256	 0	 0	 1	-30	 30;
	 71	 75	 0.00641197	 0.0208898	 0.0127544	 199.75	 235	 235	 0	 0	 1	-30	 30;
	 72	 73	 0.00630293	 0.0185076	 0.0139412	 199.75	 235	 235	 0	 0	 1	-30	 30;
	 72	 74	 0.0102689	 0.0302759	 0.00704328	 108.8	 128	 128	 0	 0	 1	-30	 30;
	 74	 80	 0.00589689	 0.0387174	 0.0253564	 323.85	 381	 381	 0	 0	 1	-30	 30;
	 75	 78	 0.00594585	 0.0194496	 0.0145811	 217.6	 256	 256	 0	 0	 1	-30	 30;
	 75	 80	 0.00962499	 0.0249457	 0.00754688	 108.8	 128	 128	 0	 0	 1	-30	 30;
	 76	 1571	 0.000352777	 0.00550269	 0.0935526	 1206.15	 1419	 1419	 0	 0	 1	-30	 30;
	 77	 1572	 0.00386673	 0.0166303	 0.0279463	 225.25	 265	 265	 0	 0	 1	-30	 30;
	 79	 93	 0.00392632	 0.0121437	 0.0197684	 181.05	 213	 213	 0	 0	 1	-30	 30;
	 80	 81	 0.00252768	 0.0128617	 0.00466281	 174.25	 205	 205	 0	 0	 1	-30	 30;
	 81	 1161	 0.00163293	 0.0067419	 0.00159508	 135.15	 159	 159	 0	 0	 1	-30	 30;
	 81	 1162	 0.00327149	 0.0112224	 0.0026885	 120.7	 142	 142	 0	 0	 1	-30	 30;
	 82	 83	 0.000744817	 0.00224633	 0.00384906	 181.05	 213	 213	 0	 0	 1	-30	 30;
	 84	 88	 0.00338113	 0.00876279	 0.00265093	 108.8	 128	 128	 0	 0	 1	-30	 30;
	 85	 86	 0.00812342	 0.0184264	 0.000367592	 50.15	 59	 59	 0	 0	 1	-30	 30;
	 86	 89	 0.0188322	 0.0350162	 0.000819582	 48.45	 57	 57	 0	 0	 1	-30	 30;
	 92	 1166	 0.0112277	 0.0475228	 0.0143376	 148.75	 175	 175	 0	 0	 1	-30	 30;
	 94	 239	 0.00585361	 0.0176559	 0.0302569	 181.05	 213	 213	 0	 0	 1	-30	 30;
	 95	 96	 0.00163015	 0.00432059	 0.00175333	 120.7	 142	 142	 0	 0	 1	-30	 30;
	 95	 103	 0.00243015	 0.00879947	 0.00188797	 120.7	 142	 142	 0	 0	 1	-30	 30;
	 96	 99	 0.00231331	 0.00566233	 0.00154902	 100.3	 118	 118	 0	 0	 1	-30	 30;
	 97	 98	 0.00140779	 0.00326782	 0.00099554	 100.3	 118	 118	 0	 0	 1	-30	 30;
	 97	 101	 0.00250598	 0.00613393	 0.00167804	 100.3	 118	 118	 0	 0	 1	-30	 30;
	 99	 101	 0.00453889	 0.0121854	 0.00276161	 100.3	 118	 118	 0	 0	 1	-30	 30;
	 100	 1170	 0.0287323	 0.0264653	 0.000424299	 44	 44	 49	 0	 0	 1	-30	 30;
	 100	 1171	 0.0851146	 0.0822406	 0.00119421	 44	 44	 49	 0	 0	 1	-30	 30;
	 101	 104	 0.00369485	 0.00904397	 0.00247413	 100.3	 118	 118	 0	 0	 1	-30	 30;
	 101	 108	 0.00839145	 0.0171727	 0.00676146	 100.3	 118	 118	 0	 0	 1	-30	 30;
	 102	 106	 0.0255323	 0.0255384	 0.000345028	 69	 69	 78	 0	 0	 1	-30	 30;
	 104	 105	 0.00510672	 0.0137098	 0.0031071	 100.3	 118	 118	 0	 0	 1	-30	 30;
	 106	 107	 0.0201348	 0.0185461	 0.000297336	 44	 44	 49	 0	 0	 1	-30	 30;
	 107	 1172	 0.0294497	 0.0713337	 0.000972598	 48.45	 57	 57	 0	 0	 1	-30	 30;
	 108	 109	 0.009284	 0.0279445	 0.00874279	 120.7	 142	 142	 0	 0	 1	-30	 30;
	 109	 110	 0.00911258	 0.0289356	 0.00811774	 120.7	 142	 142	 0	 0	 1	-30	 30;
	 110	 236	 0.0238097	 0.0716844	 0.0224345	 120.7	 142	 142	 0	 0	 1	-30	 30;
	 111	 394	 0.0116689	 0.0393179	 0.0097722	 120.7	 142	 142	 0	 0	 1	-30	 30;
	 111	 1563	 0.00720024	 0.0235534	 0.0176582	 217.6	 256	 256	 0	 0	 1	-30	 30;
	 111	 1565	 0.022949	 0.0594885	 0.0180008	 108.8	 128	 128	 0	 0	 1	-30	 30;
	 113	 973	 0.421817	 0.426384	 0.0056481	 44	 44	 49	 0	 0	 1	-30	 30;
	 113	 1568	 0.244386	 0.258522	 0.00311252	 44	 44	 49	 0	 0	 1	-30	 30;
	 114	 115	 0.0172733	 0.0656704	 0.018388	 135.15	 159	 159	 0	 0	 1	-30	 30;
	 115	 220	 0.0264584	 0.0614303	 0.0187194	 100.3	 118	 118	 0	 0	 1	-30	 30;
...
];

mpc_regionR1.gencost = [
%	2           startup     shutdown    n           c(n-1)...c0 
	 2	 0	 0	 3	 0	 0	 0;
	 2	 0	 0	 3	 0.004675	 15.02	-2.599;
	 2	 0	 0	 3	 0.01373	 45.69	-1.05;
	 2	 0	 0	 3	 0.01372	 23.93	 0;
	 2	 0	 0	 3	 0.003387	 22.68	 0;
	 2	 0	 0	 3	 0.002103	 13.87	 0;
	 2	 0	 0	 3	 0.002103	 14.83	 0;
	 2	 0	 0	 3	 0.008411	 23.82	 0;
	 2	 0	 0	 3	 0.001963	 14.78	 0;
	 2	 0	 0	 3	 0.002007	 15.06	 0;
	 2	 0	 0	 3	 0.003426	 14.37	 0;
	 2	 0	 0	 3	 0.009602	 22.74	 0;
	 2	 0	 0	 3	 0.02401	 23.44	-2.497;
	 2	 0	 0	 3	 0.03165	 14.33	-4.327;
	 2	 0	 0	 3	 0	 26.3	-330.4;
	 2	 0	 0	 3	 0	 25.57	-330.4;
	 2	 0	 0	 3	 0.07917	 14.05	-6.762;
	 2	 0	 0	 3	 0.01115	 21.7	 0;
	 2	 0	 0	 3	 0.01115	 21.75	 0;
	 2	 0	 0	 3	 0.01115	 21.09	 0;
	 2	 0	 0	 3	 0.03865	 10.78	-5.519;
	 2	 0	 0	 3	 0	 24.39	-285.4;
	 2	 0	 0	 3	 0	 27.73	-475.7;
	 2	 0	 0	 3	 0	 26.7	-475.7;
	 2	 0	 0	 3	 0	 24.2	-285.4;
	 2	 0	 0	 3	 0.06456	 13.66	-9.872;
	 2	 0	 0	 3	 0.06456	 11.92	-9.872;
	 2	 0	 0	 3	 0.09685	 12.67	-14.81;
	 2	 0	 0	 3	 0.01874	 16.14	-2.608;
	 2	 0	 0	 3	 0.03869	 11.93	-7.315;
	 2	 0	 0	 3	 0.03869	 13	-7.315;
	 2	 0	 0	 3	 0.03869	 13.43	-7.315;
	 2	 0	 0	 3	 0.03869	 11	-7.315;
	 2	 0	 0	 3	 0.03166	 12.95	-3.064;
	 2	 0	 0	 3	 0.03865	 12.09	-8.48;
	 2	 0	 0	 3	 0	 21	-18.62;
	 2	 0	 0	 3	 0	 23.82	-962.5;
	 2	 0	 0	 3	 0	 23.6	-962.5;
	 2	 0	 0	 3	 0.03878	 11.92	-4.409;
	 2	 0	 0	 3	 0	 21.88	-59.14;
	 2	 0	 0	 3	 0	 0.002083	 0;
	 2	 0	 0	 3	 0	 0.003704	 0;
	 2	 0	 0	 3	 0	 25.7	-155.9;
	 2	 0	 0	 3	 0	 23.68	-64.88;
	 2	 0	 0	 3	 0	 23.72	-25.95;
	 2	 0	 0	 3	 0.06319	 16.34	-1.448;
	 2	 0	 0	 3	 0	 21.51	-61.56;
	 2	 0	 0	 3	 0	 22.99	-95.77;
	 2	 0	 0	 3	 0	 24.64	-95.77;
	 2	 0	 0	 3	 0	 24.4	-84.31;
	 2	 0	 0	 3	 0	 23.93	-84.31;
	 2	 0	 0	 3	 0	 24.36	-58.07;
	 2	 0	 0	 3	 0	 19.21	-36.56;
	 2	 0	 0	 3	 0	 19.11	-36.56;
	 2	 0	 0	 3	 0	 19.22	-33.19;
	 2	 0	 0	 3	 0	 0.01111	 0;
	 2	 0	 0	 3	 0	 24.78	-80.16;
	 2	 0	 0	 3	 0	 23.74	-48.1;
	 2	 0	 0	 3	 0	 21.48	-32.46;
	 2	 0	 0	 3	 0	 22.11	-54.11;
	 2	 0	 0	 3	 0	 20.21	-32.46;
	 2	 0	 0	 3	 0	 21.77	-54.11;
	 2	 0	 0	 3	 0.005542	 24.02	 0;
	 2	 0	 0	 3	 0	 19.18	-23.58;
	 2	 0	 0	 3	 0	 21.47	-39.3;
	 2	 0	 0	 3	 0	 20.4	-23.58;
	 2	 0	 0	 3	 0	 20.99	-23.58;
	 2	 0	 0	 3	 0	 22.06	-39.3;
	 2	 0	 0	 3	 0	 23.24	-58.96;
	 2	 0	 0	 3	 0	 19.93	-62.38;
	 2	 0	 0	 3	 0	 18.83	-33.96;
	 2	 0	 0	 3	 0	 0.008333	 0;
	 2	 0	 0	 3	 0	 20.52	-36.56;
	 2	 0	 0	 3	 0	 21.88	-36.56;
	 2	 0	 0	 3	 0	 20.63	-35.43;
	 2	 0	 0	 3	 0	 21.99	-34.31;
	 2	 0	 0	 3	 0	 22.26	-57.18;
	 2	 0	 0	 3	 0.02776	 22.18	-1.382;
	 2	 0	 0	 3	 0	 22.3	-56.71;
	 2	 0	 0	 3	 0	 0.008333	 0;
	 2	 0	 0	 3	 0	 0.008333	 0;
	 2	 0	 0	 3	 0	 0.008333	 0;
	 2	 0	 0	 3	 0	 0.008333	 0;
	 2	 0	 0	 3	 0	 0.002564	 0;
	 2	 0	 0	 3	 0	 0.002564	 0;
	 2	 0	 0	 3	 0	 0.008333	 0;
	 2	 0	 0	 3	 0	 19.74	-39.97;
	 2	 0	 0	 3	 0	 20.57	-22.28;
	 2	 0	 0	 3	 0	 20.12	-22.28;
	 2	 0	 0	 3	 0	 19.42	-34.4;
	 2	 0	 0	 3	 0	 19.86	-34.4;
	 2	 0	 0	 3	 0	 19.12	-40.26;
	 2	 0	 0	 3	 0	 16.74	-34.11;
	 2	 0	 0	 3	 0	 19.61	-34.11;
	 2	 0	 0	 3	 0	 18.63	-56.86;
	 2	 0	 0	 3	 0	 20.65	-50.24;
	 2	 0	 0	 3	 0	 65.49	-89.84;
	 2	 0	 0	 3	 0	 33	-45.84;
	 2	 0	 0	 3	 0.005649	 23.49	-1.319;
	 2	 0	 0	 3	 0.005649	 21.89	-1.319;
	 2	 0	 0	 3	 0	 21.61	-48.1;
	 2	 0	 0	 3	 0	 19.08	-367.4;
	 2	 0	 0	 3	 0	 19.07	-367.4;
	 2	 0	 0	 3	 0	 24.02	-129.2;
	 2	 0	 0	 3	 0	 27.22	-323;
	 2	 0	 0	 3	 0	 25.48	-215.3;
	 2	 0	 0	 3	 0.03159	 13.11	-8.432;
	 2	 0	 0	 3	 0	 24.61	-248.4;
	 2	 0	 0	 3	 0	 24.72	-248.4;
	 2	 0	 0	 3	 0.01374	 26.05	 0;
	 2	 0	 0	 3	 0.01374	 25.74	 0;
	 2	 0	 0	 3	 0.01116	 24.35	 0;
	 2	 0	 0	 3	 0	 24.21	-781.6;
	 2	 0	 0	 3	 0	 23.53	-781.6;
	 2	 0	 0	 3	 0.03166	 13.24	-2.51;
	 2	 0	 0	 3	 0	 63.74	-81.41;
	 2	 0	 0	 3	 0	 64.23	-81.41;
	 2	 0	 0	 3	 0	 65.35	-81.41;
	 2	 0	 0	 3	 0	 64.72	-81.41;
	 2	 0	 0	 3	 0.03882	 11.69	-1.511;
	 2	 0	 0	 3	 0	 24.49	-82.65;
	 2	 0	 0	 3	 0	 22	-82.65;
	 2	 0	 0	 3	 0	 23.65	-137.8;
	 2	 0	 0	 3	 0	 23.72	-107.9;
	 2	 0	 0	 3	 0	 21.91	-107.9;
	 2	 0	 0	 3	 0	 22.61	-95.39;
	 2	 0	 0	 3	 0	 22.51	-72.01;
	 2	 0	 0	 3	 0	 25.7	-120;
	 2	 0	 0	 3	 0	 24.33	-61.42;
	 2	 0	 0	 3	 0	 23.63	-48.86;
	 2	 0	 0	 3	 0	 23.81	-48.79;
	 2	 0	 0	 3	 0	 23.16	-48.27;
	 2	 0	 0	 3	 0	 24.23	-48.27;
	 2	 0	 0	 3	 0	 22.46	-52.7;
	 2	 0	 0	 3	 0	 23.49	-191.5;
	 2	 0	 0	 3	 0	 18.63	-76.58;
	 2	 0	 0	 3	 0	 22.52	-127.6;
	 2	 0	 0	 3	 0	 18.63	-76.58;
	 2	 0	 0	 3	 0	 18.1	-24.4;
	 2	 0	 0	 3	 0	 17.92	-40.66;
	 2	 0	 0	 3	 0	 18.3	-32.83;
	 2	 0	 0	 3	 0	 16.92	-13.13;
];


% -------------------- mpc_regionR2 --------------------

mpc_regionR2.version = '2';
mpc_regionR2.baseMVA = 100.0000;
mpc_regionR2.bus = [
%	bus_i       type        Pd          Qd          Gs          Bs          area        Vm          Va          baseKV      zone        Vmax        Vmin        
	 1	 2	 0	 0	 0	 0	 1	 1	 0	 138	 2138	 1.1	 0.9;
	 2	 2	 0	 0	 0	-180.249216316	 1	 1	 0	 345	 2	 1.1	 0.9;
	 3	 2	 0	 0	 0	 0	 1	 1	 0	 345	 2	 1.1	 0.9;
	 4	 2	 0	 0	 0	 0	 1	 1	 0	 138	 2138	 1.1	 0.9;
	 5	 1	 0	 0	 0	 0	 1	 1	 0	 345	 1	 1.1	 0.9;
	 6	 1	 0	 0	 0	 0	 1	 1	 0	 138	 2138	 1.1	 0.9;
	 7	 1	 0	 0	 0	 0	 1	 1	 0	 345	 1	 1.1	 0.9;
	 8	 1	 0	 0	 0	 0	 1	 1	 0	 345	 1	 1.1	 0.9;
	 9	 1	 0	 0	 0	 0	 1	 1	 0	 230	 1	 1.1	 0.9;
	 10	 2	 0	 0	 0	 0	 1	 1	 0	 138	 2138	 1.1	 0.9;
	 11	 1	 0	 0	 0	 0	 1	 1	 0	 230	 1	 1.1	 0.9;
	 12	 1	 344.61	 100	 0	 0	 1	 1	 0	 345	 1	 1.1	 0.9;
	 13	 1	 0	 0	 0	 0	 1	 1	 0	 138	 2138	 1.1	 0.9;
	 14	 1	 0	 0	 0	 0	 1	 1	 0	 345	 1	 1.1	 0.9;
	 15	 2	 0	 0	 0	 0	 1	 1	 0	 345	 2	 1.1	 0.9;
	 16	 2	 0	 0	 0	 0	 1	 1	 0	 138	 2138	 1.1	 0.9;
	 17	 1	 0	 0	 0	 0	 1	 1	 0	 345	 1	 1.1	 0.9;
	 18	 1	 0	 0	 0	 0	 1	 1	 0	 345	 1	 1.1	 0.9;
	 19	 2	 0	 0	 0	 0	 1	 1	 0	 345	 2	 1.1	 0.9;
	 20	 2	 0	 0	 0	 0	 1	 1	 0	 138	 2138	 1.1	 0.9;
	 21	 1	 0	 0	 0	 0	 1	 1	 0	 138	 2138	 1.1	 0.9;
	 22	 2	 0	 0	 0	 0	 1	 1	 0	 138	 2138	 1.1	 0.9;
	 23	 2	 0	 0	 0	 0	 1	 1	 0	 138	 2138	 1.1	 0.9;
	 24	 1	 0	 0	 0	 0	 1	 1	 0	 230	 1	 1.1	 0.9;
	 25	 1	 0	 0	 0	 0	 1	 1	 0	 345	 2	 1.1	 0.9;
	 26	 2	 0	 0	 0	 0	 1	 1	 0	 138	 2138	 1.1	 0.9;
	 27	 1	 0	 0	 0	 0	 1	 1	 0	 138	 138	 1.1	 0.9;
	 28	 1	 0	 0	 0	 0	 1	 1	 0	 345	 1	 1.1	 0.9;
	 29	 2	 0	 0	 0	 0	 1	 1	 0	 138	 2138	 1.1	 0.9;
	 30	 2	 0	 0	 0	 0	 1	 1	 0	 138	 2138	 1.1	 0.9;
	 31	 1	 0	 0	 0	 0	 1	 1	 0	 69	 269	 1.1	 0.9;
	 32	 1	 0	 0	 0	 0	 1	 1	 0	 345	 1	 1.1	 0.9;
	 33	 1	 0	 0	 0	 0	 1	 1	 0	 230	 1	 1.1	 0.9;
	 34	 2	 10	 0	 0	 0	 1	 1	 0	 138	 2138	 1.1	 0.9;
	 35	 1	 0	 0	 0	 0	 1	 1	 0	 69	 269	 1.1	 0.9;
	 36	 1	 0	 0	 0	 0	 1	 1	 0	 138	 138	 1.1	 0.9;
	 37	 2	 0	 0	 0	 0	 1	 1	 0	 345	 2	 1.1	 0.9;
	 38	 1	 95.36	 12.42	 0	 0	 1	 1	 0	 138	 138	 1.1	 0.9;
	 39	 1	 0	 0	 0	 0	 1	 1	 0	 138	 138	 1.1	 0.9;
	 40	 1	 19.85	 4.61	 0	 0	 1	 1	 0	 138	 138	 1.1	 0.9;
	 41	 1	 19.31	 3.65	 0	 0	 1	 1	 0	 138	 138	 1.1	 0.9;
	 42	 1	 7.91	 1.47	 0	 0	 1	 1	 0	 138	 138	 1.1	 0.9;
	 43	 1	 3.69	 0.71	 0	 0	 1	 1	 0	 138	 138	 1.1	 0.9;
	 44	 1	 22.82	 4.29	 0	 0	 1	 1	 0	 138	 138	 1.1	 0.9;
	 45	 1	 4.78	 0.91	 0	 0	 1	 1	 0	 69	 69	 1.1	 0.9;
	 46	 1	 10.62	 1.98	 0	 0	 1	 1	 0	 69	 69	 1.1	 0.9;
	 47	 1	 4.96	 0.93	 0	 0	 1	 1	 0	 69	 69	 1.1	 0.9;
	 48	 1	 23.19	 4.38	 0	 13.0676624135	 1	 1	 0	 69	 69	 1.1	 0.9;
	 49	 1	 15.67	 2.92	 0	-4.59741633071	 1	 1	 0	 69	 69	 1.1	 0.9;
	 50	 1	 8.34	 1.61	 0	 7.30233772499	 1	 1	 0	 69	 69	 1.1	 0.9;
	 51	 1	 10.23	 1.97	 0	 5.69577084144	 1	 1	 0	 69	 69	 1.1	 0.9;
	 52	 1	 15.99	 3.03	 0	 0	 1	 1	 0	 138	 138	 1.1	 0.9;
	 53	 1	 0	 0	 0	 0	 1	 1	 0	 138	 138	 1.1	 0.9;
	 54	 1	 14.71	 2.8	 0	 0	 1	 1	 0	 138	 138	 1.1	 0.9;
	 55	 1	 12.88	 2.43	 0	 0	 1	 1	 0	 138	 138	 1.1	 0.9;
	 56	 1	 11.12	 2.13	 0	 0	 1	 1	 0	 138	 138	 1.1	 0.9;
	 57	 1	 24.39	 4.58	 0	 0	 1	 1	 0	 230	 1	 1.1	 0.9;
	 58	 1	 1505.74	 315.28	 0	 0	 1	 1	 0	 345	 1	 1.1	 0.9;
	 59	 1	 151.25	 27.17	 0	 0	 1	 1	 0	 230	 1	 1.1	 0.9;
	 60	 1	 23.81	 4.45	 0	 0	 1	 1	 0	 138	 138	 1.1	 0.9;
	 61	 1	 0	 0	 0	 0	 1	 1	 0	 138	 138	 1.1	 0.9;
	 62	 1	 11.72	 2.18	 0	 0	 1	 1	 0	 69	 69	 1.1	 0.9;
	 63	 1	 9.31	 1.79	 0	 0	 1	 1	 0	 138	 138	 1.1	 0.9;
	 64	 1	 7.31	 1.37	 0	 0	 1	 1	 0	 69	 69	 1.1	 0.9;
	 65	 1	 0	 0	 0	 0	 1	 1	 0	 230	 1	 1.1	 0.9;
	 66	 1	 0	 0	 0	 0	 1	 1	 0	 345	 1	 1.1	 0.9;
	 67	 1	 0	 0	 0	 0	 1	 1	 0	 230	 1	 1.1	 0.9;
	 68	 1	 5.1	 0.96	 0	 0	 1	 1	 0	 69	 69	 1.1	 0.9;
	 69	 1	 4.71	 0.88	 0	 0	 1	 1	 0	 138	 138	 1.1	 0.9;
	 70	 1	 3.21	 0.61	 0	 0	 1	 1	 0	 138	 138	 1.1	 0.9;
	 71	 1	 0	 0	 0	 0	 1	 1	 0	 138	 138	 1.1	 0.9;
	 72	 1	 11.87	 2.27	 0	 0	 1	 1	 0	 138	 138	 1.1	 0.9;
	 73	 1	 8.41	 1.62	 0	 0	 1	 1	 0	 69	 69	 1.1	 0.9;
	 74	 1	 8.86	 1.66	 0	 0	 1	 1	 0	 69	 69	 1.1	 0.9;
	 75	 1	 8.39	 1.57	 0	 0	 1	 1	 0	 69	 69	 1.1	 0.9;
	 76	 1	 0	 0	 0	 0	 1	 1	 0	 138	 138	 1.1	 0.9;
	 77	 1	 0	 0	 0	 0	 1	 1	 0	 138	 138	 1.1	 0.9;
	 78	 1	 7.39	 1.37	 0	 0	 1	 1	 0	 138	 138	 1.1	 0.9;
	 79	 1	 0	 0	 0	 0	 1	 1	 0	 138	 138	 1.1	 0.9;
	 80	 1	 0	 0	 0	 0	 1	 1	 0	 138	 138	 1.1	 0.9;
	 81	 1	 10.8	 2.07	 0	 0	 1	 1	 0	 69	 69	 1.1	 0.9;
	 82	 1	 9.77	 1.89	 0	 0	 1	 1	 0	 138	 138	 1.1	 0.9;
	 83	 1	 0	 0	 0	 0	 1	 1	 0	 138	 138	 1.1	 0.9;
	 84	 1	 0	 0	 0	 0	 1	 1	 0	 138	 138	 1.1	 0.9;
	 85	 1	 21.76	 4.07	 0	 0	 1	 1	 0	 69	 69	 1.1	 0.9;
	 86	 1	 15.23	 2.88	 0	 0	 1	 1	 0	 138	 138	 1.1	 0.9;
	 87	 1	 0	 0	 0	 0	 1	 1	 0	 138	 138	 1.1	 0.9;
	 88	 1	 7.36	 1.42	 0	 0	 1	 1	 0	 69	 69	 1.1	 0.9;
	 89	 1	 3.02	 0.57	 0	 0	 1	 1	 0	 69	 69	 1.1	 0.9;
	 90	 1	 0	 0	 0	 0	 1	 1	 0	 138	 138	 1.1	 0.9;
	 91	 1	 10.88	 2.02	 0	 0	 1	 1	 0	 69	 69	 1.1	 0.9;
	 92	 1	 7.29	 1.35	 0	 0	 1	 1	 0	 69	 69	 1.1	 0.9;
	 93	 1	 11.6	 2.23	 0	 0	 1	 1	 0	 69	 69	 1.1	 0.9;
	 94	 1	 5.05	 0.95	 0	 0	 1	 1	 0	 69	 69	 1.1	 0.9;
	 95	 1	 4.01	 0.78	 0	 0	 1	 1	 0	 69	 69	 1.1	 0.9;
	 96	 1	 6.99	 1.32	 0	 0	 1	 1	 0	 69	 69	 1.1	 0.9;
	 97	 1	 6.94	 1.29	 0	 0	 1	 1	 0	 69	 69	 1.1	 0.9;
	 98	 1	 9.96	 1.89	 0	 0	 1	 1	 0	 69	 69	 1.1	 0.9;
	 99	 1	 3.19	 0.61	 0	 0	 1	 1	 0	 69	 69	 1.1	 0.9;
	 100	 1	 4.01	 0.76	 0	 0	 1	 1	 0	 69	 69	 1.1	 0.9;
	 101	 1	 3.94	 0.74	 0	 0	 1	 1	 0	 69	 69	 1.1	 0.9;
	 102	 1	 4.8	 0.89	 0	 0	 1	 1	 0	 69	 69	 1.1	 0.9;
	 103	 1	 5.11	 0.97	 0	 0	 1	 1	 0	 69	 69	 1.1	 0.9;
	 104	 1	 5.77	 1.12	 0	 0	 1	 1	 0	 69	 69	 1.1	 0.9;
	 105	 1	 3.19	 0.61	 0	 0	 1	 1	 0	 69	 69	 1.1	 0.9;
	 106	 1	 13.5	 2.51	 0	 0	 1	 1	 0	 69	 69	 1.1	 0.9;
	 107	 1	 4.47	 0.86	 0	 0	 1	 1	 0	 69	 69	 1.1	 0.9;
	 108	 1	 3.62	 0.68	 0	 0	 1	 1	 0	 69	 69	 1.1	 0.9;
	 109	 1	 0	 0	 0	 0	 1	 1	 0	 138	 138	 1.1	 0.9;
	 110	 1	 5.07	 0.97	 0	 0	 1	 1	 0	 69	 69	 1.1	 0.9;
	 111	 1	 5.05	 0.93	 0	 0	 1	 1	 0	 69	 69	 1.1	 0.9;
	 112	 1	 4.53	 0.84	 0	 0	 1	 1	 0	 69	 69	 1.1	 0.9;
	 113	 1	 4.91	 0.93	 0	 0	 1	 1	 0	 69	 69	 1.1	 0.9;
	 114	 1	 5.12	 0.97	 0	 0	 1	 1	 0	 69	 69	 1.1	 0.9;
	 115	 1	 20.74	 4.11	 0	 0	 1	 1	 0	 69	 69	 1.1	 0.9;
	 116	 1	 0	 0	 0	 0	 1	 1	 0	 138	 138	 1.1	 0.9;
	 117	 1	 12.5	 2.38	 0	 0	 1	 1	 0	 69	 69	 1.1	 0.9;
	 118	 1	 0	 0	 0	 0	 1	 1	 0	 138	 138	 1.1	 0.9;
	 119	 1	 4.94	 1.18	 0	 0	 1	 1	 0	 69	 69	 1.1	 0.9;
	 120	 1	 0	 0	 0	 0	 1	 1	 0	 138	 138	 1.1	 0.9;
	 121	 1	 0	 0	 0	 0	 1	 1	 0	 138	 138	 1.1	 0.9;
	 122	 1	 0	 0	 0	 0	 1	 1	 0	 138	 138	 1.1	 0.9;
	 123	 1	 0	 0	 0	 0	 1	 1	 0	 138	 138	 1.1	 0.9;
	 124	 1	 8.57	 1.61	 0	 0	 1	 1	 0	 69	 69	 1.1	 0.9;
	 125	 1	 6.19	 1.16	 0	 0	 1	 1	 0	 69	 69	 1.1	 0.9;
	 126	 1	 0	 0	 0	 0	 1	 1	 0	 138	 138	 1.1	 0.9;
	 127	 1	 24.68	 4.67	 0	 0	 1	 1	 0	 138	 138	 1.1	 0.9;
	 128	 1	 16.95	 3.17	 0	 0	 1	 1	 0	 69	 69	 1.1	 0.9;
	 129	 1	 0	 0	 0	 0	 1	 1	 0	 345	 1	 1.1	 0.9;
	 130	 1	 14.6	 2.74	 0	 0	 1	 1	 0	 69	 69	 1.1	 0.9;
	 131	 1	 5.67	 1.06	 0	 0	 1	 1	 0	 69	 69	 1.1	 0.9;
	 132	 1	 7.29	 1.38	 0	 0	 1	 1	 0	 69	 69	 1.1	 0.9;
	 133	 1	 17.44	 3.32	 0	 0	 1	 1	 0	 138	 138	 1.1	 0.9;
	 134	 1	 8.8	 1.63	 0	 0	 1	 1	 0	 69	 69	 1.1	 0.9;
	 135	 1	 0	 0	 0	 0	 1	 1	 0	 138	 138	 1.1	 0.9;
	 136	 1	 9.68	 1.82	 0	 0	 1	 1	 0	 69	 69	 1.1	 0.9;
	 137	 1	 6.93	 1.33	 0	 0	 1	 1	 0	 69	 69	 1.1	 0.9;
	 138	 1	 0	 0	 0	 0	 1	 1	 0	 138	 138	 1.1	 0.9;
	 139	 1	 12.43	 2.35	 0	 0	 1	 1	 0	 69	 69	 1.1	 0.9;
	 140	 1	 0	 0	 0	 0	 1	 1	 0	 138	 138	 1.1	 0.9;
	 141	 1	 5.45	 1.05	 0	 0	 1	 1	 0	 69	 69	 1.1	 0.9;
	 142	 1	 11.33	 2.17	 0	 0	 1	 1	 0	 69	 69	 1.1	 0.9;
	 143	 1	 9.81	 2.27	 0	 0	 1	 1	 0	 69	 69	 1.1	 0.9;
	 144	 1	 0	 0	 0	 0	 1	 1	 0	 138	 138	 1.1	 0.9;
	 145	 1	 0	 0	 0	 0	 1	 1	 0	 138	 138	 1.1	 0.9;
	 146	 1	 3.14	 0.6	 0	 0	 1	 1	 0	 69	 69	 1.1	 0.9;
	 147	 1	 0	 0	 0	 0	 1	 1	 0	 138	 138	 1.1	 0.9;
	 148	 1	 18.1	 3.45	 0	 0	 1	 1	 0	 138	 138	 1.1	 0.9;
	 149	 1	 10.15	 1.93	 0	 0	 1	 1	 0	 69	 69	 1.1	 0.9;
	 150	 1	 0	 0	 0	 0	 1	 1	 0	 138	 138	 1.1	 0.9;
	 151	 1	 15.02	 2.83	 0	 0	 1	 1	 0	 138	 138	 1.1	 0.9;
	 152	 1	 16.86	 3.24	 0	 0	 1	 1	 0	 69	 69	 1.1	 0.9;
	 153	 1	 9.6	 1.82	 0	 0	 1	 1	 0	 138	 138	 1.1	 0.9;
	 154	 1	 17.21	 3.23	 0	 0	 1	 1	 0	 138	 138	 1.1	 0.9;
	 155	 1	 9.3	 1.76	 0	 0	 1	 1	 0	 69	 69	 1.1	 0.9;
	 156	 1	 0	 0	 0	 0	 1	 1	 0	 138	 138	 1.1	 0.9;
	 157	 1	 7.62	 1.46	 0	 0	 1	 1	 0	 69	 69	 1.1	 0.9;
	 158	 1	 0	 0	 0	 0	 1	 1	 0	 138	 138	 1.1	 0.9;
	 159	 1	 5.64	 1.05	 0	 0	 1	 1	 0	 69	 69	 1.1	 0.9;
	 160	 1	 8.96	 2.11	 0	 0	 1	 1	 0	 69	 69	 1.1	 0.9;
	 161	 1	 11.07	 2.11	 0	 0	 1	 1	 0	 69	 69	 1.1	 0.9;
	 162	 1	 19.24	 3.25	 0	 0	 1	 1	 0	 69	 69	 1.1	 0.9;
	 163	 1	 0	 0	 0	 0	 1	 1	 0	 138	 138	 1.1	 0.9;
	 164	 1	 6.1	 1.15	 0	 0	 1	 1	 0	 69	 69	 1.1	 0.9;
	 165	 1	 11.36	 2.11	 0	 0	 1	 1	 0	 69	 69	 1.1	 0.9;
	 166	 1	 5.78	 1.1	 0	 0	 1	 1	 0	 69	 69	 1.1	 0.9;
	 167	 1	 0	 0	 0	 0	 1	 1	 0	 138	 138	 1.1	 0.9;
	 168	 1	 14.9	 2.83	 0	 0	 1	 1	 0	 69	 69	 1.1	 0.9;
	 169	 1	 6.92	 1.33	 0	 0	 1	 1	 0	 69	 69	 1.1	 0.9;
	 170	 1	 5.86	 1.13	 0	 0	 1	 1	 0	 69	 69	 1.1	 0.9;
	 171	 1	 9.93	 1.88	 0	 0	 1	 1	 0	 69	 69	 1.1	 0.9;
	 172	 1	 9.76	 1.81	 0	 0	 1	 1	 0	 69	 69	 1.1	 0.9;
	 173	 1	 11.79	 2.23	 0	 0	 1	 1	 0	 69	 69	 1.1	 0.9;
	 174	 1	 7.44	 1.38	 0	 0	 1	 1	 0	 69	 69	 1.1	 0.9;
	 175	 1	 13.03	 2.51	 0	 0	 1	 1	 0	 69	 69	 1.1	 0.9;
	 176	 1	 9.73	 1.81	 0	 0	 1	 1	 0	 69	 69	 1.1	 0.9;
	 177	 1	 7.53	 1.44	 0	 0	 1	 1	 0	 69	 69	 1.1	 0.9;
	 178	 1	 12.88	 2.43	 0	 0	 1	 1	 0	 69	 69	 1.1	 0.9;
	 179	 1	 4.74	 0.89	 0	 0	 1	 1	 0	 69	 69	 1.1	 0.9;
	 180	 1	 0	 0	 0	 0	 1	 1	 0	 138	 138	 1.1	 0.9;
	 181	 1	 5.18	 0.99	 0	 0	 1	 1	 0	 69	 69	 1.1	 0.9;
	 182	 1	 11.73	 2.21	 0	 0	 1	 1	 0	 69	 69	 1.1	 0.9;
	 183	 1	 0	 0	 0	 0	 1	 1	 0	 138	 138	 1.1	 0.9;
	 184	 1	 6.66	 1.26	 0	 0	 1	 1	 0	 69	 69	 1.1	 0.9;
	 185	 1	 7.8	 1.46	 0	 0	 1	 1	 0	 69	 69	 1.1	 0.9;
	 186	 1	 0	 0	 0	 0	 1	 1	 0	 138	 138	 1.1	 0.9;
	 187	 1	 3.38	 0.63	 0	 0	 1	 1	 0	 69	 69	 1.1	 0.9;
	 188	 1	 7.2	 1.38	 0	 0	 1	 1	 0	 69	 69	 1.1	 0.9;
	 189	 1	 4.91	 0.94	 0	 0	 1	 1	 0	 69	 69	 1.1	 0.9;
	 190	 1	 9.08	 1.7	 0	 0	 1	 1	 0	 69	 69	 1.1	 0.9;
	 191	 1	 0	 0	 0	 0	 1	 1	 0	 138	 138	 1.1	 0.9;
	 192	 1	 7.31	 1.39	 0	 0	 1	 1	 0	 69	 69	 1.1	 0.9;
	 193	 1	 6.33	 1.2	 0	 0	 1	 1	 0	 69	 69	 1.1	 0.9;
	 194	 1	 98.21	 17.72	 0	 0	 1	 1	 0	 345	 1	 1.1	 0.9;
	 195	 1	 9.04	 1.7	 0	 0	 1	 1	 0	 69	 69	 1.1	 0.9;
	 196	 1	 10.82	 2.08	 0	 0	 1	 1	 0	 69	 69	 1.1	 0.9;
	 197	 1	 11.47	 2.16	 0	 0	 1	 1	 0	 69	 69	 1.1	 0.9;
	 198	 1	 0	 0	 0	 0	 1	 1	 0	 230	 1	 1.1	 0.9;
	 199	 1	 0	 0	 0	 0	 1	 1	 0	 138	 138	 1.1	 0.9;
	 200	 1	 0	 0	 0	 0	 1	 1	 0	 138	 138	 1.1	 0.9;
...
];

mpc_regionR2.gen = [
%	bus         Pg          Qg          Qmax        Qmin        Vg          mBase       status      Pmax        Pmin        Pc1         Pc2         Qc1min      Qc1max      Qc2min      Qc2max      ramp_agc    ramp_10     ramp_30     ramp_q      apf         
	 1	 592.5	 0	 505	-505	 1	 100	 1	 1010	 175;
	 2	 242.5	 4.3	 198.6	-190	 1	 100	 1	 360	 125;
	 3	 320	 0	 320	-320	 1	 100	 1	 640	 0;
	 4	 270	 0	 228	-228	 1	 100	 1	 455	 85;
	 4	 137.75	 30.75	 165.5	-104	 1	 100	 1	 208	 67.5;
	 4	 164.75	 17.25	 165.5	-131	 1	 100	 1	 262	 67.5;
	 10	 331	 0	 304	-304	 1	 100	 1	 607	 55;
	 15	 249	 0	 227	-227	 1	 100	 1	 453	 45;
	 15	 232.5	 0	 210	-210	 1	 100	 1	 420	 45;
	 15	 258.5	 0	 244	-244	 1	 100	 1	 487	 30;
	 16	 162.5	 0	 138	-138	 1	 100	 1	 275	 50;
	 16	 66	 24.65	 106.6	-57.3	 1	 100	 1	 97	 35;
	 19	 289.75	 0	 261	-261	 1	 100	 1	 522	 57.5;
	 19	 296.25	 0	 268	-268	 1	 100	 1	 535	 57.5;
	 19	 284	 0	 277	-277	 1	 100	 1	 553	 15;
	 20	 190.2	 0	 180	-180	 1	 100	 1	 360	 20.4;
	 22	 62.25	 13.85	 81.7	-54	 1	 100	 1	 107	 17.5;
	 22	 38.75	 18.9	 81.7	-43.9	 1	 100	 1	 60	 17.5;
	 23	 145.5	 0	 141	-141	 1	 100	 1	 281	 10;
	 26	 71.25	 0	 68	-68	 1	 100	 1	 135	 7.5;
	 26	 54.25	 0	 52	-52	 1	 100	 1	 104	 4.5;
	 26	 109	 0	 101	-101	 1	 100	 1	 202	 16;
	 26	 60.25	 0	 57	-57	 1	 100	 1	 113	 7.5;
	 29	 104.55	 0	 99	-99	 1	 100	 1	 198	 11.1;
	 30	 42.25	 0	 35	-35	 1	 100	 1	 70	 14.5;
	 30	 36.25	 0	 30	-30	 1	 100	 1	 59	 13.5;
	 34	 64.5	 0	 64	-64	 1	 100	 1	 128	 1;
	 37	 515.65	 0	 514	-514	 1	 100	 1	 1027	 4.3;
	 37	 258.15	 0	 256	-256	 1	 100	 1	 512	 4.3;
	 470	 134.25	 6.15	 123.3	-111	 1	 100	 1	 221	 47.5;
	 470	 135.75	 5.65	 123.3	-112	 1	 100	 1	 224	 47.5;
	 470	 142.25	 0	 139	-139	 1	 100	 1	 277	 7.5;
	 472	 202.75	 0	 178	-178	 1	 100	 1	 356	 49.5;
	 472	 116	 8.25	 117.5	-101	 1	 100	 1	 202	 30;
	 472	 140.5	 0	 126	-126	 1	 100	 1	 251	 30;
	 474	 495.75	 0	 471	-471	 1	 100	 1	 942	 49.5;
	 474	 298.25	 0	 285	-285	 1	 100	 1	 569	 27.5;
	 474	 277	 0	 262	-262	 1	 100	 1	 524	 30;
	 474	 180.5	 0	 166	-166	 1	 100	 1	 331	 30;
	 481	 144.425	 0	 121	-121	 1	 100	 1	 242	 46.85;
	 481	 77.5375	 24.35	 105.4	-56.7	 1	 100	 1	 110	 45.075;
	 481	 81.0375	 23.2	 105.4	-59	 1	 100	 1	 117	 45.075;
	 482	 333.9	 0	 333	-333	 1	 100	 1	 665	 2.8;
	 482	 345.5	 0	 341	-341	 1	 100	 1	 681	 10;
	 489	 194	 0	 189	-189	 1	 100	 1	 378	 10;
	 489	 116	 0	 111	-111	 1	 100	 1	 222	 10;
	 489	 93.5	 0	 89	-89	 1	 100	 1	 177	 10;
	 489	 96	 0	 91	-91	 1	 100	 1	 182	 10;
	 492	 105.75	 0	 105	-105	 1	 100	 1	 209	 2.5;
	 493	 206	 0	 202	-202	 1	 100	 1	 403	 9;
];

mpc_regionR2.branch = [
%	fbus        tbus        r           x           b           rateA       rateB       rateC       ratio       angle       status      angmin      angmax      
	 1	 122	 0.0200024	 0.0832729	 0.0383714	 217.6	 256	 256	 0	 0	 1	-30	 30;
	 1	 337	 0.0299014	 0.104693	 0.0347237	 207.4	 244	 244	 0	 0	 1	-30	 30;
	 1	 384	 0.0300678	 0.0913345	 0.0200103	 108.8	 128	 128	 0	 0	 1	-30	 30;
	 1	 387	 0.0165013	 0.0577492	 0.0191424	 138.72	 163.21	 163.21	 0	 0	 1	-30	 30;
	 1	 388	 0.0196501	 0.0596781	 0.0130715	 142	 142	 142	 0	 0	 1	-30	 30;
	 1	 482	 0.0163343	 0.105031	 0.0720622	 323.85	 381	 381	 0	 0	 1	-30	 30;
	 2	 129	 0.00328017	 0.0227785	 0.893779	 675.75	 795	 795	 0	 0	 1	-30	 30;
	 2	 250	 0.0014774	 0.0105676	 0.3867	 675.75	 795	 795	 0	 0	 1	-30	 30;
	 2	 422	 0.00637419	 0.0465141	 1.71056	 675.75	 795	 795	 0	 0	 1	-30	 30;
	 3	 66	 0.00263979	 0.0259099	 0.97991	 804.95	 947	 947	 0	 0	 1	-30	 30;
	 3	 244	 0.00206443	 0.0148789	 0.537491	 675.75	 795	 795	 0	 0	 1	-30	 30;
	 4	 156	 0.00591338	 0.0268282	 0.0209737	 268.6	 316	 316	 0	 0	 1	-30	 30;
	 4	 199	 0.00948304	 0.0364853	 0.00996602	 233	 233	 233	 0	 0	 1	-30	 30;
	 4	 209	 0.00161205	 0.0148293	 0.00470563	 241.4	 284	 284	 0	 0	 1	-30	 30;
	 4	 544	 0.00607466	 0.0247198	 0.00602279	 135.15	 159	 159	 0	 0	 1	-30	 30;
	 4	 555	 0.000539409	 0.00540581	 0.0038861	 425.85	 501	 501	 0	 0	 1	-30	 30;
	 5	 129	 0.000634551	 0.00439176	 0.17149	 675.75	 795	 795	 0	 0	 1	-30	 30;
	 6	 243	 0.034357	 0.09227	 0.0209204	 100.3	 118	 118	 0	 0	 1	-30	 30;
	 6	 468	 0.00615217	 0.0260386	 0.00585916	 135.15	 159	 159	 0	 0	 1	-30	 30;
	 7	 3	 0.000365134	 0.00461686	 0.181691	 974.95	 1147	 1147	 0	 0	 1	-30	 30;
	 7	 244	 0.00163954	 0.0118107	 0.42634	 675.75	 795	 795	 0	 0	 1	-30	 30;
	 8	 339	 0.000643385	 0.00463136	 0.167007	 675.75	 795	 795	 0	 0	 1	-30	 30;
	 8	 346	 0.000236999	 0.00169408	 0.0619303	 675.75	 795	 795	 0	 0	 1	-30	 30;
	 9	 570	 0.000101629	 0.00142843	 0.00592419	 804.1	 946	 946	 0	 0	 1	-30	 30;
	 10	 384	 0.00164192	 0.00788125	 0.00376815	 208.17	 244.86	 244.86	 0	 0	 1	-30	 30;
	 10	 386	 0.00386778	 0.0397376	 0.0125702	 276.17	 324.91	 324.91	 0	 0	 1	-30	 30;
	 11	 345	 0.00174376	 0.0140021	 0.0263204	 337.45	 397	 397	 0	 0	 1	-30	 30;
	 11	 570	 0.000289425	 0.00323681	 0.00664062	 435.2	 512	 512	 0	 0	 1	-30	 30;
	 11	 599	 0.000719985	 0.00659985	 0.0260499	 621.35	 731	 731	 0	 0	 1	-30	 30;
	 12	 244	 0.00193354	 0.0138372	 0.506711	 675.75	 795	 795	 0	 0	 1	-30	 30;
	 12	 339	 0.00153318	 0.0110433	 0.398577	 675.75	 795	 795	 0	 0	 1	-30	 30;
	 13	 330	 0.030031	 0.12407	 0.0293796	 135.15	 159	 159	 0	 0	 1	-30	 30;
	 13	 347	 0.0123745	 0.0332226	 0.0075297	 100.3	 118	 118	 0	 0	 1	-30	 30;
	 13	 349	 0.0143875	 0.0369869	 0.00915932	 100.3	 118	 118	 0	 0	 1	-30	 30;
	 13	 600	 0.0111726	 0.0461328	 0.010916	 135.15	 159	 159	 0	 0	 1	-30	 30;
	 14	 66	 0.00229788	 0.0164528	 0.602924	 675.75	 795	 795	 0	 0	 1	-30	 30;
	 14	 194	 0.000286315	 0.0020608	 0.0743008	 675.75	 795	 795	 0	 0	 1	-30	 30;
	 14	 475	 1e-07	 0.0001	 0	 340	 400	 400	 0	 0	 1	-30	 30;
	 15	 25	 1.04232e-05	 0.0001	 0.000797989	 532.1	 626	 626	 0	 0	 1	-30	 30;
	 16	 133	 0.00539744	 0.0209979	 0.00560839	 135.15	 159	 159	 0	 0	 1	-30	 30;
	 16	 135	 0.00440715	 0.017934	 0.00436939	 135.15	 159	 159	 0	 0	 1	-30	 30;
	 16	 144	 0.00835249	 0.047484	 0.013747	 174.25	 205	 205	 0	 0	 1	-30	 30;
	 16	 219	 0.0198208	 0.0700728	 0.0157935	 120.7	 142	 142	 0	 0	 1	-30	 30;
	 16	 220	 0.00637941	 0.022233	 0.00515529	 120.7	 142	 142	 0	 0	 1	-30	 30;
	 16	 360	 0.0417665	 0.113773	 0.0250814	 100.3	 118	 118	 0	 0	 1	-30	 30;
	 17	 19	 7.03265e-05	 0.000486672	 0.0190002	 675.75	 795	 795	 0	 0	 1	-30	 30;
	 17	 339	 0.000338804	 0.00234467	 0.0915429	 675.75	 795	 795	 0	 0	 1	-30	 30;
	 18	 19	 0.0034509	 0.0249335	 0.903958	 675.75	 795	 795	 0	 0	 1	-30	 30;
	 18	 58	 0.000523486	 0.00754728	 0.305638	 1069.3	 1258	 1258	 0	 0	 1	-30	 30;
	 19	 346	 0.000614953	 0.00442665	 0.159622	 675.75	 795	 795	 0	 0	 1	-30	 30;
	 20	 316	 0.00156856	 0.00548836	 0.00181878	 212	 212	 212	 0	 0	 1	-30	 30;
	 20	 319	 0.0017233	 0.00637182	 0.00188759	 244	 244	 244	 0	 0	 1	-30	 30;
	 21	 126	 0.063113	 0.160708	 0.0407202	 100.3	 118	 118	 0	 0	 1	-30	 30;
	 21	 127	 0.0546402	 0.144539	 0.0338687	 100.3	 118	 118	 0	 0	 1	-30	 30;
	 21	 220	 0.211874	 0.577296	 0.133153	 100.3	 118	 118	 0	 0	 1	-30	 30;
	 21	 423	 0.080007	 0.1932	 0.054675	 100.3	 118	 118	 0	 0	 1	-30	 30;
	 21	 439	 0.0682612	 0.167334	 0.0458549	 100.3	 118	 118	 0	 0	 1	-30	 30;
	 21	 527	 0.212708	 0.570651	 0.135951	 100.3	 118	 118	 0	 0	 1	-30	 30;
	 22	 419	 0.00167365	 0.00941747	 0.00325306	 202.98	 238.77	 238.77	 0	 0	 1	-30	 30;
	 22	 428	 0.00107518	 0.0068098	 0.00184818	 207.66	 244.25	 244.25	 0	 0	 1	-30	 30;
	 22	 626	 0.00905394	 0.0315547	 0.00731697	 120.7	 142	 142	 0	 0	 1	-30	 30;
	 23	 387	 0.00937455	 0.034664	 0.0102697	 135.15	 159	 159	 0	 0	 1	-30	 30;
	 23	 395	 0.0012555	 0.0114913	 0.00460181	 273.53	 321.81	 321.81	 0	 0	 1	-30	 30;
	 24	 57	 0.00221853	 0.0105714	 0.0193495	 412	 412	 412	 0	 0	 1	-30	 30;
	 24	 501	 0.000329923	 0.00256641	 0.00514391	 411	 411	 411	 0	 0	 1	-30	 30;
	 25	 210	 0.0496759	 0.201531	 1.65927	 301.75	 355	 355	 0	 0	 1	-30	 30;
	 26	 109	 0.000752839	 0.00359792	 0.00125997	 193	 193	 212	 0	 0	 1	-30	 30;
	 26	 116	 0.00845504	 0.0328939	 0.00878611	 135.15	 159	 159	 0	 0	 1	-30	 30;
	 27	 318	 0.00454353	 0.013606	 0.00306492	 108.8	 128	 128	 0	 0	 1	-30	 30;
	 27	 600	 0.00481971	 0.0111878	 0.00340839	 100.3	 118	 118	 0	 0	 1	-30	 30;
	 28	 333	 0.000408779	 0.00151057	 0.0121436	 301.75	 355	 355	 0	 0	 1	-30	 30;
	 29	 317	 0.00337225	 0.00866871	 0.00214654	 100.3	 118	 118	 0	 0	 1	-30	 30;
	 29	 328	 0.00850684	 0.0220475	 0.00667004	 108.8	 128	 128	 0	 0	 1	-30	 30;
	 29	 332	 0.0278611	 0.0758714	 0.01672	 100.3	 118	 118	 0	 0	 1	-30	 30;
	 30	 123	 0.206353	 0.553082	 0.131621	 100.3	 118	 118	 0	 0	 1	-30	 30;
	 30	 369	 0.0171025	 0.0514835	 0.0161094	 120.7	 142	 142	 0	 0	 1	-30	 30;
	 30	 374	 0.0746543	 0.169649	 0.0542586	 100.3	 118	 118	 0	 0	 1	-30	 30;
	 31	 356	 0.284312	 0.261983	 0.00420042	 44	 44	 49	 0	 0	 1	-30	 30;
	 31	 363	 0.337396	 0.310949	 0.00498563	 44	 44	 49	 0	 0	 1	-30	 30;
	 31	 455	 0.322099	 0.732859	 0.011413	 48.45	 57	 57	 0	 0	 1	-30	 30;
	 32	 333	 0.00700886	 0.027148	 0.199013	 301.75	 355	 355	 0	 0	 1	-30	 30;
	 32	 335	 0.000307647	 0.00119049	 0.00871586	 301.75	 355	 355	 0	 0	 1	-30	 30;
	 33	 345	 0.00301289	 0.00931836	 0.0151688	 181.05	 213	 213	 0	 0	 1	-30	 30;
	 34	 395	 0.0132554	 0.0463862	 0.0153744	 135.15	 159	 159	 0	 0	 1	-30	 30;
	 34	 502	 0.0133815	 0.0468275	 0.0155207	 135.15	 159	 159	 0	 0	 1	-30	 30;
	 35	 193	 0.176002	 0.176067	 0.00237879	 44	 44	 49	 0	 0	 1	-30	 30;
	 35	 503	 0.0976817	 0.0899784	 0.00144257	 44	 44	 49	 0	 0	 1	-30	 30;
	 36	 121	 0.0198655	 0.0695288	 0.0230497	 135.15	 159	 159	 0	 0	 1	-30	 30;
	 36	 388	 0.00851656	 0.0174288	 0.00686228	 100.3	 118	 118	 0	 0	 1	-30	 30;
	 36	 394	 0.0203804	 0.075378	 0.0223389	 135.15	 159	 159	 0	 0	 1	-30	 30;
	 37	 268	 0.000117171	 0.00100424	 0.00836693	 505.75	 595	 595	 0	 0	 1	-30	 30;
	 37	 269	 0.000110662	 0.00122064	 0.0104532	 601.8	 708	 708	 0	 0	 1	-30	 30;
	 38	 39	 0.0281032	 0.065251	 0.0198843	 100.3	 118	 118	 0	 0	 1	-30	 30;
...